
     RDKit          3D

 33 34  0  0  0  0  0  0  0  0999 V2000
   -4.1732    0.5723   -0.5447 C   0  0  0  0  0  0  0  0  0  0  0  0
   -2.8525    0.0629    0.0165 C   0  0  0  0  0  0  0  0  0  0  0  0
   -1.8764    0.0215   -1.0364 O   0  0  0  0  0  0  0  0  0  0  0  0
   -0.9446    1.0627   -0.7164 C   0  0  2  0  0  0  0  0  0  0  0  0
    0.4479    0.8139   -1.3071 C   0  0  1  0  0  0  0  0  0  0  0  0
    1.2436    1.9948   -1.1449 O   0  0  0  0  0  0  0  0  0  0  0  0
    2.3994    1.6857   -0.4930 C   0  0  0  0  0  0  0  0  0  0  0  0
    3.2572    2.5014   -0.2066 O   0  0  0  0  0  0  0  0  0  0  0  0
    2.4170    0.2358   -0.1908 C   0  0  0  0  0  0  0  0  0  0  0  0
    3.3921   -0.4798    0.4523 O   0  0  0  0  0  0  0  0  0  0  0  0
    4.5589    0.2438    0.8260 C   0  0  0  0  0  0  0  0  0  0  0  0
    1.2675   -0.2547   -0.6714 C   0  0  0  0  0  0  0  0  0  0  0  0
    0.7613   -1.5238   -0.6786 O   0  0  0  0  0  0  0  0  0  0  0  0
    1.5342   -2.5517   -0.0708 C   0  0  0  0  0  0  0  0  0  0  0  0
   -1.0237    1.1598    0.7897 C   0  0  0  0  0  0  0  0  0  0  0  0
   -2.4155    0.9622    1.0484 O   0  0  0  0  0  0  0  0  0  0  0  0
   -2.9998   -1.3390    0.5958 C   0  0  0  0  0  0  0  0  0  0  0  0
   -4.5334   -0.0669   -1.3575 H   0  0  0  0  0  0  0  0  0  0  0  0
   -4.9403    0.6320    0.2344 H   0  0  0  0  0  0  0  0  0  0  0  0
   -4.0512    1.5809   -0.9562 H   0  0  0  0  0  0  0  0  0  0  0  0
   -1.3496    1.9885   -1.1477 H   0  0  0  0  0  0  0  0  0  0  0  0
    0.3570    0.6094   -2.3809 H   0  0  0  0  0  0  0  0  0  0  0  0
    5.2519   -0.4615    1.2948 H   0  0  0  0  0  0  0  0  0  0  0  0
    4.3215    1.0156    1.5649 H   0  0  0  0  0  0  0  0  0  0  0  0
    5.0586    0.6670   -0.0512 H   0  0  0  0  0  0  0  0  0  0  0  0
    0.9766   -3.4884   -0.1649 H   0  0  0  0  0  0  0  0  0  0  0  0
    1.6777   -2.3555    0.9965 H   0  0  0  0  0  0  0  0  0  0  0  0
    2.4913   -2.6804   -0.5861 H   0  0  0  0  0  0  0  0  0  0  0  0
   -0.4774    0.3658    1.3084 H   0  0  0  0  0  0  0  0  0  0  0  0
   -0.6996    2.1293    1.1774 H   0  0  0  0  0  0  0  0  0  0  0  0
   -3.7134   -1.3528    1.4262 H   0  0  0  0  0  0  0  0  0  0  0  0
   -2.0408   -1.6977    0.9869 H   0  0  0  0  0  0  0  0  0  0  0  0
   -3.3223   -2.0531   -0.1691 H   0  0  0  0  0  0  0  0  0  0  0  0
  1  2  1  0
  2  3  1  0
  3  4  1  0
  4  5  1  0
  5  6  1  0
  6  7  1  0
  7  8  2  0
  7  9  1  0
  9 10  1  0
 10 11  1  0
  9 12  2  0
 12 13  1  0
 13 14  1  0
  4 15  1  0
 15 16  1  0
  2 17  1  0
 16  2  1  0
 12  5  1  0
  1 18  1  0
  1 19  1  0
  1 20  1  0
  4 21  1  6
  5 22  1  6
 11 23  1  0
 11 24  1  0
 11 25  1  0
 14 26  1  0
 14 27  1  0
 14 28  1  0
 15 29  1  0
 15 30  1  0
 17 31  1  0
 17 32  1  0
 17 33  1  0
M  END
$$$$
