
     RDKit          3D

 30 31  0  0  0  0  0  0  0  0999 V2000
   -2.5884    1.6426   -0.0128 C   0  0  0  0  0  0  0  0  0  0  0  0
   -2.0791    0.2273   -0.2500 C   0  0  0  0  0  0  0  0  0  0  0  0
   -0.6448    0.2216   -0.1568 O   0  0  0  0  0  0  0  0  0  0  0  0
   -0.3557   -0.4888    1.0599 C   0  0  2  0  0  0  0  0  0  0  0  0
    1.0037   -1.1885    1.0196 C   0  0  1  0  0  0  0  0  0  0  0  0
    1.0466   -2.1402   -0.0579 O   0  0  0  0  0  0  0  0  0  0  0  0
    2.0595   -1.8202   -0.9186 C   0  0  0  0  0  0  0  0  0  0  0  0
    2.3211   -2.4263   -1.9413 O   0  0  0  0  0  0  0  0  0  0  0  0
    2.7891   -0.6599   -0.3743 C   0  0  0  0  0  0  0  0  0  0  0  0
    3.9383   -0.1346   -0.8917 O   0  0  0  0  0  0  0  0  0  0  0  0
    2.1452   -0.2854    0.7289 C   0  0  0  0  0  0  0  0  0  0  0  0
    2.5276    0.6922    1.6087 O   0  0  0  0  0  0  0  0  0  0  0  0
    2.1703    1.9927    1.1334 C   0  0  0  0  0  0  0  0  0  0  0  0
   -1.5256   -1.4373    1.1813 C   0  0  0  0  0  0  0  0  0  0  0  0
   -2.6285   -0.6331    0.7599 O   0  0  0  0  0  0  0  0  0  0  0  0
   -2.4789   -0.2831   -1.6289 C   0  0  0  0  0  0  0  0  0  0  0  0
   -2.2922    1.9950    0.9820 H   0  0  0  0  0  0  0  0  0  0  0  0
   -2.1689    2.3438   -0.7418 H   0  0  0  0  0  0  0  0  0  0  0  0
   -3.6816    1.6852   -0.0585 H   0  0  0  0  0  0  0  0  0  0  0  0
   -0.3835    0.2466    1.8743 H   0  0  0  0  0  0  0  0  0  0  0  0
    1.1744   -1.7345    1.9546 H   0  0  0  0  0  0  0  0  0  0  0  0
    4.2641    0.5201   -0.2499 H   0  0  0  0  0  0  0  0  0  0  0  0
    2.5081    2.7236    1.8740 H   0  0  0  0  0  0  0  0  0  0  0  0
    2.6633    2.2194    0.1825 H   0  0  0  0  0  0  0  0  0  0  0  0
    1.0852    2.0903    1.0305 H   0  0  0  0  0  0  0  0  0  0  0  0
   -1.4582   -2.2973    0.5067 H   0  0  0  0  0  0  0  0  0  0  0  0
   -1.6842   -1.7947    2.2022 H   0  0  0  0  0  0  0  0  0  0  0  0
   -3.5677   -0.3287   -1.7352 H   0  0  0  0  0  0  0  0  0  0  0  0
   -2.0945   -1.2964   -1.7920 H   0  0  0  0  0  0  0  0  0  0  0  0
   -2.0650    0.3489   -2.4216 H   0  0  0  0  0  0  0  0  0  0  0  0
  1  2  1  0
  2  3  1  0
  3  4  1  0
  4  5  1  0
  5  6  1  0
  6  7  1  0
  7  8  2  0
  7  9  1  0
  9 10  1  0
  9 11  2  0
 11 12  1  0
 12 13  1  0
  4 14  1  0
 14 15  1  0
  2 16  1  0
 15  2  1  0
 11  5  1  0
  1 17  1  0
  1 18  1  0
  1 19  1  0
  4 20  1  1
  5 21  1  1
 10 22  1  0
 13 23  1  0
 13 24  1  0
 13 25  1  0
 14 26  1  0
 14 27  1  0
 16 28  1  0
 16 29  1  0
 16 30  1  0
M  END
$$$$
