
     RDKit          3D

 27 27  0  0  0  0  0  0  0  0999 V2000
    3.1326    1.7616   -1.6312 C   0  0  0  0  0  0  0  0  0  0  0  0
    3.2566    0.4294   -1.7144 C   0  0  0  0  0  0  0  0  0  0  0  0
    2.3566   -0.5995   -1.0829 C   0  0  0  0  0  0  0  0  0  0  0  0
    1.3404    0.0334   -0.3066 O   0  0  0  0  0  0  0  0  0  0  0  0
    0.4216   -0.7673    0.3068 C   0  0  0  0  0  0  0  0  0  0  0  0
   -0.6545   -0.1230    1.1193 C   0  0  1  0  0  0  0  0  0  0  0  0
   -1.6032    0.7814    0.3100 C   0  0  2  0  0  0  0  0  0  0  0  0
   -0.9699    2.0306   -0.0095 O   0  0  0  0  0  0  0  0  0  0  0  0
   -2.8875    1.1047    1.0848 C   0  0  0  0  0  0  0  0  0  0  0  0
   -3.6735    2.0042    0.2947 O   0  0  0  0  0  0  0  0  0  0  0  0
   -1.3858   -1.2394    1.6614 O   0  0  0  0  0  0  0  0  0  0  0  0
   -0.8542   -2.3974    1.1932 C   0  0  0  0  0  0  0  0  0  0  0  0
   -1.2504   -3.5255    1.4289 O   0  0  0  0  0  0  0  0  0  0  0  0
    0.3029   -2.0958    0.3422 C   0  0  0  0  0  0  0  0  0  0  0  0
    1.0722   -3.0550   -0.2508 O   0  0  0  0  0  0  0  0  0  0  0  0
    3.8378    2.4202   -2.1276 H   0  0  0  0  0  0  0  0  0  0  0  0
    2.3242    2.2252   -1.0717 H   0  0  0  0  0  0  0  0  0  0  0  0
    4.0829    0.0240   -2.2939 H   0  0  0  0  0  0  0  0  0  0  0  0
    2.9695   -1.2418   -0.4399 H   0  0  0  0  0  0  0  0  0  0  0  0
    1.9033   -1.1930   -1.8853 H   0  0  0  0  0  0  0  0  0  0  0  0
   -0.2086    0.4339    1.9522 H   0  0  0  0  0  0  0  0  0  0  0  0
   -1.8763    0.3080   -0.6414 H   0  0  0  0  0  0  0  0  0  0  0  0
   -1.6903    2.5910   -0.3639 H   0  0  0  0  0  0  0  0  0  0  0  0
   -2.6578    1.6107    2.0281 H   0  0  0  0  0  0  0  0  0  0  0  0
   -3.4812    0.2072    1.2811 H   0  0  0  0  0  0  0  0  0  0  0  0
   -4.4863    2.1838    0.8007 H   0  0  0  0  0  0  0  0  0  0  0  0
    0.6790   -3.9117    0.0157 H   0  0  0  0  0  0  0  0  0  0  0  0
  1  2  2  3
  2  3  1  0
  3  4  1  0
  4  5  1  0
  5  6  1  0
  6  7  1  0
  7  8  1  0
  7  9  1  0
  9 10  1  0
  6 11  1  0
 11 12  1  0
 12 13  2  0
 12 14  1  0
 14 15  1  0
 14  5  2  0
  1 16  1  0
  1 17  1  0
  2 18  1  0
  3 19  1  0
  3 20  1  0
  6 21  1  1
  7 22  1  6
  8 23  1  0
  9 24  1  0
  9 25  1  0
 10 26  1  0
 15 27  1  0
M  END
$$$$
