
     RDKit          3D

 49 51  0  0  0  0  0  0  0  0999 V2000
   -5.9139   -1.7041    1.0767 C   0  0  0  0  0  0  0  0  0  0  0  0
   -5.0875   -1.0758   -0.0381 C   0  0  0  0  0  0  0  0  0  0  0  0
   -4.6384    0.2231    0.3757 O   0  0  0  0  0  0  0  0  0  0  0  0
   -3.2380    0.0551    0.6694 C   0  0  2  0  0  0  0  0  0  0  0  0
   -2.4919    1.3844    0.5171 C   0  0  1  0  0  0  0  0  0  0  0  0
   -2.9054    2.2723    1.5789 O   0  0  0  0  0  0  0  0  0  0  0  0
   -1.8251    2.6255    2.3182 C   0  0  0  0  0  0  0  0  0  0  0  0
   -1.8131    3.3395    3.3058 O   0  0  0  0  0  0  0  0  0  0  0  0
   -0.6205    2.0149    1.7397 C   0  0  0  0  0  0  0  0  0  0  0  0
    0.6338    2.2100    2.2417 O   0  0  0  0  0  0  0  0  0  0  0  0
   -1.0128    1.3002    0.6829 C   0  0  0  0  0  0  0  0  0  0  0  0
   -0.3014    0.5701   -0.2257 O   0  0  0  0  0  0  0  0  0  0  0  0
    1.1204    0.5201   -0.0549 C   0  0  0  0  0  0  0  0  0  0  0  0
    1.6859   -0.3492   -1.1790 C   0  0  0  0  0  0  0  0  0  0  0  0
    3.2069   -0.5764   -1.1465 C   0  0  0  0  0  0  0  0  0  0  0  0
    4.0131    0.7259   -1.1116 C   0  0  0  0  0  0  0  0  0  0  0  0
    5.5117    0.4680   -1.2971 C   0  0  0  0  0  0  0  0  0  0  0  0
    5.9699   -0.8907   -0.7641 C   0  0  0  0  0  0  0  0  0  0  0  0
    5.1060   -1.3652    0.3958 C   0  0  0  0  0  0  0  0  0  0  0  0
    3.6355   -1.5196   -0.0054 C   0  0  0  0  0  0  0  0  0  0  0  0
   -2.8342   -1.0243   -0.3073 C   0  0  0  0  0  0  0  0  0  0  0  0
   -3.9526   -1.9146   -0.2986 O   0  0  0  0  0  0  0  0  0  0  0  0
   -5.9043   -0.9228   -1.3147 C   0  0  0  0  0  0  0  0  0  0  0  0
   -5.3129   -1.8137    1.9867 H   0  0  0  0  0  0  0  0  0  0  0  0
   -6.7764   -1.0799    1.3323 H   0  0  0  0  0  0  0  0  0  0  0  0
   -6.2622   -2.7042    0.7983 H   0  0  0  0  0  0  0  0  0  0  0  0
   -3.1802   -0.3096    1.7034 H   0  0  0  0  0  0  0  0  0  0  0  0
   -2.7560    1.8724   -0.4284 H   0  0  0  0  0  0  0  0  0  0  0  0
    0.5196    2.8056    3.0116 H   0  0  0  0  0  0  0  0  0  0  0  0
    1.3555    0.0814    0.9197 H   0  0  0  0  0  0  0  0  0  0  0  0
    1.5297    1.5335   -0.1254 H   0  0  0  0  0  0  0  0  0  0  0  0
    1.4159    0.1136   -2.1379 H   0  0  0  0  0  0  0  0  0  0  0  0
    1.1715   -1.3193   -1.1773 H   0  0  0  0  0  0  0  0  0  0  0  0
    3.4554   -1.0842   -2.0901 H   0  0  0  0  0  0  0  0  0  0  0  0
    3.6672    1.4196   -1.8869 H   0  0  0  0  0  0  0  0  0  0  0  0
    3.8623    1.2301   -0.1487 H   0  0  0  0  0  0  0  0  0  0  0  0
    6.0697    1.2700   -0.7987 H   0  0  0  0  0  0  0  0  0  0  0  0
    5.7703    0.5328   -2.3610 H   0  0  0  0  0  0  0  0  0  0  0  0
    7.0199   -0.8295   -0.4563 H   0  0  0  0  0  0  0  0  0  0  0  0
    5.9253   -1.6321   -1.5718 H   0  0  0  0  0  0  0  0  0  0  0  0
    5.1819   -0.6419    1.2176 H   0  0  0  0  0  0  0  0  0  0  0  0
    5.4822   -2.3182    0.7846 H   0  0  0  0  0  0  0  0  0  0  0  0
    3.0215   -1.3784    0.8903 H   0  0  0  0  0  0  0  0  0  0  0  0
    3.4567   -2.5532   -0.3292 H   0  0  0  0  0  0  0  0  0  0  0  0
   -1.9305   -1.5643   -0.0136 H   0  0  0  0  0  0  0  0  0  0  0  0
   -2.7156   -0.6421   -1.3274 H   0  0  0  0  0  0  0  0  0  0  0  0
   -6.7721   -0.2740   -1.1564 H   0  0  0  0  0  0  0  0  0  0  0  0
   -5.2991   -0.4651   -2.1056 H   0  0  0  0  0  0  0  0  0  0  0  0
   -6.2437   -1.8944   -1.6886 H   0  0  0  0  0  0  0  0  0  0  0  0
  1  2  1  0
  2  3  1  0
  3  4  1  0
  4  5  1  0
  5  6  1  0
  6  7  1  0
  7  8  2  0
  7  9  1  0
  9 10  1  0
  9 11  2  0
 11 12  1  0
 12 13  1  0
 13 14  1  0
 14 15  1  0
 15 16  1  0
 16 17  1  0
 17 18  1  0
 18 19  1  0
 19 20  1  0
  4 21  1  0
 21 22  1  0
  2 23  1  0
 22  2  1  0
 11  5  1  0
 20 15  1  0
  1 24  1  0
  1 25  1  0
  1 26  1  0
  4 27  1  1
  5 28  1  6
 10 29  1  0
 13 30  1  0
 13 31  1  0
 14 32  1  0
 14 33  1  0
 15 34  1  0
 16 35  1  0
 16 36  1  0
 17 37  1  0
 17 38  1  0
 18 39  1  0
 18 40  1  0
 19 41  1  0
 19 42  1  0
 20 43  1  0
 20 44  1  0
 21 45  1  0
 21 46  1  0
 23 47  1  0
 23 48  1  0
 23 49  1  0
M  END
$$$$
