
     RDKit          3D

 20 20  0  0  0  0  0  0  0  0999 V2000
    2.0907    1.5170   -1.2517 C   0  0  0  0  0  0  0  0  0  0  0  0
    1.6772    0.5131   -0.1881 C   0  0  1  0  0  0  0  0  0  0  0  0
    1.8410    1.0679    1.1170 O   0  0  0  0  0  0  0  0  0  0  0  0
    0.2298    0.0720   -0.4132 C   0  0  0  0  0  0  0  0  0  0  0  0
   -0.6704    1.1718   -0.2204 O   0  0  0  0  0  0  0  0  0  0  0  0
   -1.8144    0.7158    0.3625 C   0  0  0  0  0  0  0  0  0  0  0  0
   -2.8248    1.3862    0.5113 O   0  0  0  0  0  0  0  0  0  0  0  0
   -1.6968   -0.7526    0.7116 C   0  0  1  0  0  0  0  0  0  0  0  0
   -2.4063   -1.5946   -0.1947 O   0  0  0  0  0  0  0  0  0  0  0  0
   -0.2038   -0.9918    0.5823 C   0  0  1  0  0  0  0  0  0  0  0  0
    0.0980   -2.2974    0.0899 O   0  0  0  0  0  0  0  0  0  0  0  0
    2.7309    2.5325   -0.9839 O   0  0  0  0  0  0  0  0  0  0  0  0
    1.8468    1.2535   -2.2947 H   0  0  0  0  0  0  0  0  0  0  0  0
    2.3511   -0.3457   -0.2789 H   0  0  0  0  0  0  0  0  0  0  0  0
    2.4856    1.8010    1.0240 H   0  0  0  0  0  0  0  0  0  0  0  0
    0.1116   -0.2806   -1.4464 H   0  0  0  0  0  0  0  0  0  0  0  0
   -2.0381   -0.9407    1.7336 H   0  0  0  0  0  0  0  0  0  0  0  0
   -3.3430   -1.3180   -0.1438 H   0  0  0  0  0  0  0  0  0  0  0  0
    0.2794   -0.8614    1.5567 H   0  0  0  0  0  0  0  0  0  0  0  0
   -0.7445   -2.6479   -0.2733 H   0  0  0  0  0  0  0  0  0  0  0  0
  1  2  1  0
  2  3  1  0
  2  4  1  0
  4  5  1  0
  5  6  1  0
  6  7  2  0
  6  8  1  0
  8  9  1  0
  8 10  1  0
 10 11  1  0
  1 12  2  0
 10  4  1  0
  1 13  1  0
  2 14  1  1
  3 15  1  0
  4 16  1  0
  8 17  1  1
  9 18  1  0
 10 19  1  1
 11 20  1  0
M  END
$$$$
