
     RDKit          3D

 32 32  0  0  0  0  0  0  0  0999 V2000
   -4.4751    1.7212    0.5974 C   0  0  0  0  0  0  0  0  0  0  0  0
   -3.6278    0.4774    0.3829 C   0  0  0  0  0  0  0  0  0  0  0  0
   -2.1831    0.8362    0.0469 C   0  0  0  0  0  0  0  0  0  0  0  0
   -1.3279   -0.4099   -0.1692 C   0  0  0  0  0  0  0  0  0  0  0  0
   -0.0003    0.0223   -0.4753 O   0  0  0  0  0  0  0  0  0  0  0  0
    0.9354   -0.9520   -0.6824 C   0  0  0  0  0  0  0  0  0  0  0  0
    2.3373   -0.5400   -0.9928 C   0  0  1  0  0  0  0  0  0  0  0  0
    3.1107    0.1381    0.1605 C   0  0  2  0  0  0  0  0  0  0  0  0
    3.0819   -0.6788    1.3429 O   0  0  0  0  0  0  0  0  0  0  0  0
    2.6009    1.5430    0.4909 C   0  0  0  0  0  0  0  0  0  0  0  0
    2.7158    2.3986   -0.6372 O   0  0  0  0  0  0  0  0  0  0  0  0
    3.0027   -1.7850   -1.3034 O   0  0  0  0  0  0  0  0  0  0  0  0
    2.1566   -2.8136   -1.0455 C   0  0  0  0  0  0  0  0  0  0  0  0
    2.4051   -4.0042   -1.1383 O   0  0  0  0  0  0  0  0  0  0  0  0
    0.8338   -2.2830   -0.6871 C   0  0  0  0  0  0  0  0  0  0  0  0
   -0.2546   -3.0769   -0.4608 O   0  0  0  0  0  0  0  0  0  0  0  0
   -4.0858    2.3233    1.4246 H   0  0  0  0  0  0  0  0  0  0  0  0
   -5.5058    1.4412    0.8367 H   0  0  0  0  0  0  0  0  0  0  0  0
   -4.4926    2.3440   -0.3027 H   0  0  0  0  0  0  0  0  0  0  0  0
   -4.0620   -0.1181   -0.4285 H   0  0  0  0  0  0  0  0  0  0  0  0
   -3.6574   -0.1386    1.2892 H   0  0  0  0  0  0  0  0  0  0  0  0
   -1.7450    1.4417    0.8504 H   0  0  0  0  0  0  0  0  0  0  0  0
   -2.1465    1.4620   -0.8537 H   0  0  0  0  0  0  0  0  0  0  0  0
   -1.3243   -1.0128    0.7465 H   0  0  0  0  0  0  0  0  0  0  0  0
   -1.7340   -0.9916   -1.0049 H   0  0  0  0  0  0  0  0  0  0  0  0
    2.3657    0.0765   -1.8983 H   0  0  0  0  0  0  0  0  0  0  0  0
    4.1621    0.2013   -0.1490 H   0  0  0  0  0  0  0  0  0  0  0  0
    3.7932   -0.3645    1.9280 H   0  0  0  0  0  0  0  0  0  0  0  0
    1.5626    1.5273    0.8356 H   0  0  0  0  0  0  0  0  0  0  0  0
    3.1943    1.9687    1.3079 H   0  0  0  0  0  0  0  0  0  0  0  0
    2.2904    3.2415   -0.3990 H   0  0  0  0  0  0  0  0  0  0  0  0
    0.0738   -3.9952   -0.5520 H   0  0  0  0  0  0  0  0  0  0  0  0
  1  2  1  0
  2  3  1  0
  3  4  1  0
  4  5  1  0
  5  6  1  0
  6  7  1  0
  7  8  1  0
  8  9  1  0
  8 10  1  0
 10 11  1  0
  7 12  1  0
 12 13  1  0
 13 14  2  0
 13 15  1  0
 15 16  1  0
 15  6  2  0
  1 17  1  0
  1 18  1  0
  1 19  1  0
  2 20  1  0
  2 21  1  0
  3 22  1  0
  3 23  1  0
  4 24  1  0
  4 25  1  0
  7 26  1  6
  8 27  1  6
  9 28  1  0
 10 29  1  0
 10 30  1  0
 11 31  1  0
 16 32  1  0
M  END
$$$$
