
     RDKit          3D

 33 34  0  0  0  0  0  0  0  0999 V2000
    3.6758    1.4976   -2.3484 C   0  0  0  0  0  0  0  0  0  0  0  0
    3.6789    1.9162   -1.0190 C   0  0  0  0  0  0  0  0  0  0  0  0
    2.9358    1.2193   -0.0648 C   0  0  0  0  0  0  0  0  0  0  0  0
    2.1889    0.0907   -0.4310 C   0  0  0  0  0  0  0  0  0  0  0  0
    1.3666   -0.6487    0.5954 C   0  0  0  0  0  0  0  0  0  0  0  0
    0.1008    0.0057    0.6765 O   0  0  0  0  0  0  0  0  0  0  0  0
   -0.8441   -0.5473    1.4911 C   0  0  0  0  0  0  0  0  0  0  0  0
   -2.1935    0.0892    1.5481 C   0  0  1  0  0  0  0  0  0  0  0  0
   -3.0360    0.0423    0.2544 C   0  0  2  0  0  0  0  0  0  0  0  0
   -3.2823   -1.3121   -0.1575 O   0  0  0  0  0  0  0  0  0  0  0  0
   -2.4255    0.8246   -0.9088 C   0  0  0  0  0  0  0  0  0  0  0  0
   -2.1983    2.1783   -0.5385 O   0  0  0  0  0  0  0  0  0  0  0  0
   -2.8939   -0.6839    2.5509 O   0  0  0  0  0  0  0  0  0  0  0  0
   -2.0896   -1.6900    2.9808 C   0  0  0  0  0  0  0  0  0  0  0  0
   -2.3781   -2.5534    3.7912 O   0  0  0  0  0  0  0  0  0  0  0  0
   -0.7825   -1.5908    2.3197 C   0  0  0  0  0  0  0  0  0  0  0  0
    0.2599   -2.4331    2.5803 O   0  0  0  0  0  0  0  0  0  0  0  0
    2.1821   -0.3130   -1.7739 C   0  0  0  0  0  0  0  0  0  0  0  0
    2.9260    0.3852   -2.7265 C   0  0  0  0  0  0  0  0  0  0  0  0
    4.2544    2.0411   -3.0907 H   0  0  0  0  0  0  0  0  0  0  0  0
    4.2575    2.7881   -0.7253 H   0  0  0  0  0  0  0  0  0  0  0  0
    2.9376    1.5631    0.9672 H   0  0  0  0  0  0  0  0  0  0  0  0
    1.2455   -1.6928    0.2816 H   0  0  0  0  0  0  0  0  0  0  0  0
    1.8777   -0.6210    1.5654 H   0  0  0  0  0  0  0  0  0  0  0  0
   -2.1141    1.1172    1.9200 H   0  0  0  0  0  0  0  0  0  0  0  0
   -4.0181    0.4757    0.4842 H   0  0  0  0  0  0  0  0  0  0  0  0
   -3.8153   -1.7220    0.5491 H   0  0  0  0  0  0  0  0  0  0  0  0
   -1.4892    0.3733   -1.2517 H   0  0  0  0  0  0  0  0  0  0  0  0
   -3.1088    0.8095   -1.7654 H   0  0  0  0  0  0  0  0  0  0  0  0
   -1.6552    2.5716   -1.2453 H   0  0  0  0  0  0  0  0  0  0  0  0
   -0.0753   -3.0692    3.2459 H   0  0  0  0  0  0  0  0  0  0  0  0
    1.5937   -1.1737   -2.0845 H   0  0  0  0  0  0  0  0  0  0  0  0
    2.9186    0.0623   -3.7642 H   0  0  0  0  0  0  0  0  0  0  0  0
  1  2  2  0
  2  3  1  0
  3  4  2  0
  4  5  1  0
  5  6  1  0
  6  7  1  0
  7  8  1  0
  8  9  1  0
  9 10  1  0
  9 11  1  0
 11 12  1  0
  8 13  1  0
 13 14  1  0
 14 15  2  0
 14 16  1  0
 16 17  1  0
  4 18  1  0
 18 19  2  0
 19  1  1  0
 16  7  2  0
  1 20  1  0
  2 21  1  0
  3 22  1  0
  5 23  1  0
  5 24  1  0
  8 25  1  1
  9 26  1  1
 10 27  1  0
 11 28  1  0
 11 29  1  0
 12 30  1  0
 17 31  1  0
 18 32  1  0
 19 33  1  0
M  END
$$$$
