
     RDKit          3D

 35 36  0  0  0  0  0  0  0  0999 V2000
    3.6436   -0.9336    0.2535 C   0  0  0  0  0  0  0  0  0  0  0  0
    2.7686   -0.7606   -0.9818 C   0  0  0  0  0  0  0  0  0  0  0  0
    1.4956   -0.2339   -0.5703 O   0  0  0  0  0  0  0  0  0  0  0  0
    0.5232   -1.1057   -1.1757 C   0  0  2  0  0  0  0  0  0  0  0  0
   -0.7778   -1.1671   -0.3709 C   0  0  1  0  0  0  0  0  0  0  0  0
   -0.5176   -1.6087    0.9667 O   0  0  0  0  0  0  0  0  0  0  0  0
   -0.8409   -0.6169    1.8396 C   0  0  0  0  0  0  0  0  0  0  0  0
   -0.6558   -0.6587    3.0424 O   0  0  0  0  0  0  0  0  0  0  0  0
   -1.4657    0.5025    1.1007 C   0  0  0  0  0  0  0  0  0  0  0  0
   -2.0066    1.6461    1.6254 O   0  0  0  0  0  0  0  0  0  0  0  0
   -2.5082    1.5699    2.9755 C   0  0  0  0  0  0  0  0  0  0  0  0
   -3.6302    0.6270    3.1238 C   0  0  0  0  0  0  0  0  0  0  0  0
   -4.5056   -0.1284    3.2316 N   0  0  0  0  0  0  0  0  0  0  0  0
   -1.4177    0.1661   -0.1933 C   0  0  0  0  0  0  0  0  0  0  0  0
   -1.8432    0.8180   -1.3178 O   0  0  0  0  0  0  0  0  0  0  0  0
   -2.2240    2.2002   -1.2202 C   0  0  0  0  0  0  0  0  0  0  0  0
   -3.6210    2.3727   -0.7944 C   0  0  0  0  0  0  0  0  0  0  0  0
   -4.7173    2.5333   -0.4465 N   0  0  0  0  0  0  0  0  0  0  0  0
    1.2557   -2.4251   -1.2477 C   0  0  0  0  0  0  0  0  0  0  0  0
    2.5784   -2.0335   -1.6178 O   0  0  0  0  0  0  0  0  0  0  0  0
    3.4045    0.1943   -1.9831 C   0  0  0  0  0  0  0  0  0  0  0  0
    4.6162   -1.3647   -0.0055 H   0  0  0  0  0  0  0  0  0  0  0  0
    3.7972    0.0207    0.7681 H   0  0  0  0  0  0  0  0  0  0  0  0
    3.1686   -1.6129    0.9706 H   0  0  0  0  0  0  0  0  0  0  0  0
    0.3347   -0.7226   -2.1871 H   0  0  0  0  0  0  0  0  0  0  0  0
   -1.4797   -1.8725   -0.8303 H   0  0  0  0  0  0  0  0  0  0  0  0
   -2.8701    2.5764    3.2152 H   0  0  0  0  0  0  0  0  0  0  0  0
   -1.6937    1.3746    3.6791 H   0  0  0  0  0  0  0  0  0  0  0  0
   -1.5200    2.7599   -0.5943 H   0  0  0  0  0  0  0  0  0  0  0  0
   -2.1186    2.6133   -2.2299 H   0  0  0  0  0  0  0  0  0  0  0  0
    1.3141   -2.9403   -0.2830 H   0  0  0  0  0  0  0  0  0  0  0  0
    0.8386   -3.1076   -1.9930 H   0  0  0  0  0  0  0  0  0  0  0  0
    4.3727   -0.1805   -2.3313 H   0  0  0  0  0  0  0  0  0  0  0  0
    3.5376    1.1921   -1.5521 H   0  0  0  0  0  0  0  0  0  0  0  0
    2.7647    0.3061   -2.8661 H   0  0  0  0  0  0  0  0  0  0  0  0
  1  2  1  0
  2  3  1  0
  3  4  1  0
  4  5  1  0
  5  6  1  0
  6  7  1  0
  7  8  2  0
  7  9  1  0
  9 10  1  0
 10 11  1  0
 11 12  1  0
 12 13  3  0
  9 14  2  0
 14 15  1  0
 15 16  1  0
 16 17  1  0
 17 18  3  0
  4 19  1  0
 19 20  1  0
  2 21  1  0
 20  2  1  0
 14  5  1  0
  1 22  1  0
  1 23  1  0
  1 24  1  0
  4 25  1  6
  5 26  1  6
 11 27  1  0
 11 28  1  0
 16 29  1  0
 16 30  1  0
 19 31  1  0
 19 32  1  0
 21 33  1  0
 21 34  1  0
 21 35  1  0
M  END
$$$$
