
     RDKit          3D

 19 19  0  0  0  0  0  0  0  0999 V2000
   -2.5337    0.5497   -0.5038 C   0  0  0  0  0  0  0  0  0  0  0  0
   -2.9100   -0.0852   -2.3113 Br  0  0  0  0  0  0  0  0  0  0  0  0
   -1.3660   -0.1904    0.1495 C   0  0  2  0  0  0  0  0  0  0  0  0
   -0.0317   -0.0469   -0.6131 C   0  0  1  0  0  0  0  0  0  0  0  0
    0.2795    1.3357   -0.8364 O   0  0  0  0  0  0  0  0  0  0  0  0
    1.4755    1.6477   -0.2539 C   0  0  0  0  0  0  0  0  0  0  0  0
    1.9885    2.7510   -0.2605 O   0  0  0  0  0  0  0  0  0  0  0  0
    2.0152    0.4363    0.3975 C   0  0  0  0  0  0  0  0  0  0  0  0
    3.1786    0.3863    1.1071 O   0  0  0  0  0  0  0  0  0  0  0  0
    1.1351   -0.5359    0.1726 C   0  0  0  0  0  0  0  0  0  0  0  0
    1.2160   -1.8487    0.5520 O   0  0  0  0  0  0  0  0  0  0  0  0
   -1.7234   -1.5664    0.3450 O   0  0  0  0  0  0  0  0  0  0  0  0
   -3.4618    0.3821    0.0507 H   0  0  0  0  0  0  0  0  0  0  0  0
   -2.3500    1.6244   -0.5846 H   0  0  0  0  0  0  0  0  0  0  0  0
   -1.2487    0.2425    1.1518 H   0  0  0  0  0  0  0  0  0  0  0  0
   -0.0587   -0.5677   -1.5765 H   0  0  0  0  0  0  0  0  0  0  0  0
    3.1621   -0.3897    1.6887 H   0  0  0  0  0  0  0  0  0  0  0  0
    2.1518   -2.0809    0.6983 H   0  0  0  0  0  0  0  0  0  0  0  0
   -0.9184   -2.0438    0.6270 H   0  0  0  0  0  0  0  0  0  0  0  0
  1  2  1  0
  1  3  1  0
  3  4  1  0
  4  5  1  0
  5  6  1  0
  6  7  2  0
  6  8  1  0
  8  9  1  0
  8 10  2  0
 10 11  1  0
  3 12  1  0
 10  4  1  0
  1 13  1  0
  1 14  1  0
  3 15  1  1
  4 16  1  6
  9 17  1  0
 11 18  1  0
 12 19  1  0
M  END
$$$$
