
     RDKit          3D

 26 26  0  0  0  0  0  0  0  0999 V2000
    1.9389   -2.1533    0.5130 C   0  0  0  0  0  0  0  0  0  0  0  0
    0.6841   -1.5582    0.8314 O   0  0  0  0  0  0  0  0  0  0  0  0
    0.2309   -0.5630    0.0073 C   0  0  0  0  0  0  0  0  0  0  0  0
   -1.1130    0.0111    0.3051 C   0  0  1  0  0  0  0  0  0  0  0  0
   -1.1969    0.6501    1.7084 C   0  0  2  0  0  0  0  0  0  0  0  0
   -1.0639   -0.3407    2.7458 O   0  0  0  0  0  0  0  0  0  0  0  0
   -2.5452    1.3446    1.9336 C   0  0  0  0  0  0  0  0  0  0  0  0
   -3.5923    0.3738    1.9603 O   0  0  0  0  0  0  0  0  0  0  0  0
   -1.2866    1.0061   -0.7081 O   0  0  0  0  0  0  0  0  0  0  0  0
   -0.1943    1.0361   -1.5212 C   0  0  0  0  0  0  0  0  0  0  0  0
   -0.0640    1.8003   -2.4605 O   0  0  0  0  0  0  0  0  0  0  0  0
    0.7814    0.0191   -1.0651 C   0  0  0  0  0  0  0  0  0  0  0  0
    2.0078   -0.2743   -1.6001 O   0  0  0  0  0  0  0  0  0  0  0  0
    2.3614    0.4340   -2.7831 C   0  0  0  0  0  0  0  0  0  0  0  0
    2.1317   -2.9383    1.2507 H   0  0  0  0  0  0  0  0  0  0  0  0
    2.7491   -1.4212    0.5871 H   0  0  0  0  0  0  0  0  0  0  0  0
    1.9116   -2.6236   -0.4751 H   0  0  0  0  0  0  0  0  0  0  0  0
   -1.8798   -0.7626    0.1799 H   0  0  0  0  0  0  0  0  0  0  0  0
   -0.3994    1.3918    1.8381 H   0  0  0  0  0  0  0  0  0  0  0  0
   -0.2841   -0.8868    2.5221 H   0  0  0  0  0  0  0  0  0  0  0  0
   -2.7666    2.0831    1.1581 H   0  0  0  0  0  0  0  0  0  0  0  0
   -2.5537    1.8510    2.9048 H   0  0  0  0  0  0  0  0  0  0  0  0
   -3.3019   -0.2899    2.6179 H   0  0  0  0  0  0  0  0  0  0  0  0
    3.3381    0.0660   -3.1112 H   0  0  0  0  0  0  0  0  0  0  0  0
    2.4610    1.5053   -2.5826 H   0  0  0  0  0  0  0  0  0  0  0  0
    1.6459    0.2395   -3.5884 H   0  0  0  0  0  0  0  0  0  0  0  0
  1  2  1  0
  2  3  1  0
  3  4  1  0
  4  5  1  0
  5  6  1  0
  5  7  1  0
  7  8  1  0
  4  9  1  0
  9 10  1  0
 10 11  2  0
 10 12  1  0
 12 13  1  0
 13 14  1  0
 12  3  2  0
  1 15  1  0
  1 16  1  0
  1 17  1  0
  4 18  1  1
  5 19  1  6
  6 20  1  0
  7 21  1  0
  7 22  1  0
  8 23  1  0
 14 24  1  0
 14 25  1  0
 14 26  1  0
M  END
$$$$
