
     RDKit          3D

 40 42  0  0  0  0  0  0  0  0999 V2000
    3.1570    2.0478    0.8261 C   0  0  0  0  0  0  0  0  0  0  0  0
    3.3832    0.7304    0.0960 C   0  0  0  0  0  0  0  0  0  0  0  0
    2.2266   -0.1060    0.2595 O   0  0  0  0  0  0  0  0  0  0  0  0
    1.5852   -0.1015   -1.0287 C   0  0  2  0  0  0  0  0  0  0  0  0
    0.7716   -1.3740   -1.2788 C   0  0  1  0  0  0  0  0  0  0  0  0
    1.5992   -2.5398   -1.1205 O   0  0  0  0  0  0  0  0  0  0  0  0
    1.1316   -3.2733   -0.0765 C   0  0  0  0  0  0  0  0  0  0  0  0
    1.6167   -4.2997    0.3677 O   0  0  0  0  0  0  0  0  0  0  0  0
   -0.1098   -2.6695    0.4299 C   0  0  0  0  0  0  0  0  0  0  0  0
   -0.8578   -3.2112    1.4351 O   0  0  0  0  0  0  0  0  0  0  0  0
   -0.3262   -1.5688   -0.2918 C   0  0  0  0  0  0  0  0  0  0  0  0
   -1.3359   -0.6508   -0.2646 O   0  0  0  0  0  0  0  0  0  0  0  0
   -2.3311   -0.8129    0.7477 C   0  0  0  0  0  0  0  0  0  0  0  0
   -3.2885    0.3479    0.6362 C   0  0  0  0  0  0  0  0  0  0  0  0
   -4.5324    0.1943    0.0085 C   0  0  0  0  0  0  0  0  0  0  0  0
   -5.4070    1.2768   -0.1022 C   0  0  0  0  0  0  0  0  0  0  0  0
   -5.0446    2.5229    0.4064 C   0  0  0  0  0  0  0  0  0  0  0  0
   -3.8060    2.6899    1.0230 C   0  0  0  0  0  0  0  0  0  0  0  0
   -2.9302    1.6091    1.1349 C   0  0  0  0  0  0  0  0  0  0  0  0
    2.7516    0.0623   -1.9747 C   0  0  0  0  0  0  0  0  0  0  0  0
    3.5837    1.0066   -1.2990 O   0  0  0  0  0  0  0  0  0  0  0  0
    4.5967   -0.0081    0.6463 C   0  0  0  0  0  0  0  0  0  0  0  0
    2.2826    2.5679    0.4182 H   0  0  0  0  0  0  0  0  0  0  0  0
    4.0145    2.7189    0.7108 H   0  0  0  0  0  0  0  0  0  0  0  0
    2.9675    1.8844    1.8921 H   0  0  0  0  0  0  0  0  0  0  0  0
    0.9401    0.7860   -1.0669 H   0  0  0  0  0  0  0  0  0  0  0  0
    0.3726   -1.3800   -2.2997 H   0  0  0  0  0  0  0  0  0  0  0  0
   -0.3690   -4.0105    1.7221 H   0  0  0  0  0  0  0  0  0  0  0  0
   -2.8704   -1.7569    0.6037 H   0  0  0  0  0  0  0  0  0  0  0  0
   -1.8769   -0.8049    1.7464 H   0  0  0  0  0  0  0  0  0  0  0  0
   -4.8268   -0.7697   -0.4002 H   0  0  0  0  0  0  0  0  0  0  0  0
   -6.3706    1.1484   -0.5882 H   0  0  0  0  0  0  0  0  0  0  0  0
   -5.7259    3.3650    0.3185 H   0  0  0  0  0  0  0  0  0  0  0  0
   -3.5203    3.6628    1.4142 H   0  0  0  0  0  0  0  0  0  0  0  0
   -1.9622    1.7532    1.6102 H   0  0  0  0  0  0  0  0  0  0  0  0
    3.3290   -0.8587   -2.1092 H   0  0  0  0  0  0  0  0  0  0  0  0
    2.4587    0.4473   -2.9550 H   0  0  0  0  0  0  0  0  0  0  0  0
    4.4700   -0.2455    1.7077 H   0  0  0  0  0  0  0  0  0  0  0  0
    5.5122    0.5779    0.5144 H   0  0  0  0  0  0  0  0  0  0  0  0
    4.7412   -0.9579    0.1189 H   0  0  0  0  0  0  0  0  0  0  0  0
  1  2  1  0
  2  3  1  0
  3  4  1  0
  4  5  1  0
  5  6  1  0
  6  7  1  0
  7  8  2  0
  7  9  1  0
  9 10  1  0
  9 11  2  0
 11 12  1  0
 12 13  1  0
 13 14  1  0
 14 15  2  0
 15 16  1  0
 16 17  2  0
 17 18  1  0
 18 19  2  0
  4 20  1  0
 20 21  1  0
  2 22  1  0
 21  2  1  0
 11  5  1  0
 19 14  1  0
  1 23  1  0
  1 24  1  0
  1 25  1  0
  4 26  1  1
  5 27  1  6
 10 28  1  0
 13 29  1  0
 13 30  1  0
 15 31  1  0
 16 32  1  0
 17 33  1  0
 18 34  1  0
 19 35  1  0
 20 36  1  0
 20 37  1  0
 22 38  1  0
 22 39  1  0
 22 40  1  0
M  END
$$$$
