
     RDKit          3D

 36 37  0  0  0  0  0  0  0  0999 V2000
    4.7915    1.8361    1.1977 C   0  0  0  0  0  0  0  0  0  0  0  0
    3.4959    1.1670    1.6199 C   0  0  0  0  0  0  0  0  0  0  0  0
    2.9215    0.2909    0.5109 C   0  0  0  0  0  0  0  0  0  0  0  0
    1.7104   -0.2924    0.9991 O   0  0  0  0  0  0  0  0  0  0  0  0
    1.0222   -1.0942    0.1336 C   0  0  0  0  0  0  0  0  0  0  0  0
   -0.2714   -1.6732    0.5925 C   0  0  0  0  0  0  0  0  0  0  0  0
   -1.3456   -0.6150    0.8575 C   0  0  0  0  0  0  0  0  0  0  0  0
   -1.6745    0.1404   -0.3221 O   0  0  0  0  0  0  0  0  0  0  0  0
   -3.0311    0.5668   -0.1189 C   0  0  0  0  0  0  0  0  0  0  0  0
   -3.8363    0.2330   -1.3685 C   0  0  0  0  0  0  0  0  0  0  0  0
   -3.0498    2.0619    0.1703 C   0  0  0  0  0  0  0  0  0  0  0  0
   -3.5891   -0.1263    1.0087 O   0  0  0  0  0  0  0  0  0  0  0  0
   -2.6807   -1.2012    1.2533 C   0  0  0  0  0  0  0  0  0  0  0  0
   -0.6742   -2.5381   -0.4833 O   0  0  0  0  0  0  0  0  0  0  0  0
    0.1945   -2.3866   -1.5171 C   0  0  0  0  0  0  0  0  0  0  0  0
    0.1296   -2.9287   -2.6073 O   0  0  0  0  0  0  0  0  0  0  0  0
    1.2893   -1.4925   -1.1119 C   0  0  0  0  0  0  0  0  0  0  0  0
    2.3573   -1.2017   -1.9112 O   0  0  0  0  0  0  0  0  0  0  0  0
    5.1803    2.4571    2.0107 H   0  0  0  0  0  0  0  0  0  0  0  0
    4.6350    2.4781    0.3250 H   0  0  0  0  0  0  0  0  0  0  0  0
    5.5531    1.0916    0.9448 H   0  0  0  0  0  0  0  0  0  0  0  0
    2.7596    1.9279    1.9055 H   0  0  0  0  0  0  0  0  0  0  0  0
    3.6655    0.5599    2.5173 H   0  0  0  0  0  0  0  0  0  0  0  0
    3.6403   -0.4974    0.2582 H   0  0  0  0  0  0  0  0  0  0  0  0
    2.7116    0.9083   -0.3706 H   0  0  0  0  0  0  0  0  0  0  0  0
   -0.1161   -2.2931    1.4831 H   0  0  0  0  0  0  0  0  0  0  0  0
   -1.0071    0.1009    1.6178 H   0  0  0  0  0  0  0  0  0  0  0  0
   -3.8057   -0.8439   -1.5701 H   0  0  0  0  0  0  0  0  0  0  0  0
   -4.8888    0.5102   -1.2490 H   0  0  0  0  0  0  0  0  0  0  0  0
   -3.4281    0.7372   -2.2507 H   0  0  0  0  0  0  0  0  0  0  0  0
   -2.4688    2.2860    1.0723 H   0  0  0  0  0  0  0  0  0  0  0  0
   -2.6033    2.6316   -0.6513 H   0  0  0  0  0  0  0  0  0  0  0  0
   -4.0694    2.4206    0.3458 H   0  0  0  0  0  0  0  0  0  0  0  0
   -2.7229   -1.5026    2.3033 H   0  0  0  0  0  0  0  0  0  0  0  0
   -2.9827   -2.0464    0.6255 H   0  0  0  0  0  0  0  0  0  0  0  0
    2.1879   -1.6722   -2.7535 H   0  0  0  0  0  0  0  0  0  0  0  0
  1  2  1  0
  2  3  1  0
  3  4  1  0
  4  5  1  0
  5  6  1  0
  6  7  1  0
  7  8  1  0
  8  9  1  0
  9 10  1  0
  9 11  1  0
  9 12  1  0
 12 13  1  0
  6 14  1  0
 14 15  1  0
 15 16  2  0
 15 17  1  0
 17 18  1  0
 17  5  2  0
 13  7  1  0
  1 19  1  0
  1 20  1  0
  1 21  1  0
  2 22  1  0
  2 23  1  0
  3 24  1  0
  3 25  1  0
  6 26  1  0
  7 27  1  0
 10 28  1  0
 10 29  1  0
 10 30  1  0
 11 31  1  0
 11 32  1  0
 11 33  1  0
 13 34  1  0
 13 35  1  0
 18 36  1  0
M  END
$$$$
