
     RDKit          3D

 34 35  0  0  0  0  0  0  0  0999 V2000
    2.4377    3.0087   -0.2781 C   0  0  0  0  0  0  0  0  0  0  0  0
    2.8292    1.7424   -0.0835 C   0  0  0  0  0  0  0  0  0  0  0  0
    2.2142    0.5482   -0.7451 C   0  0  0  0  0  0  0  0  0  0  0  0
    1.7650   -0.3283    0.2905 O   0  0  0  0  0  0  0  0  0  0  0  0
    1.2449   -1.5023   -0.1860 C   0  0  0  0  0  0  0  0  0  0  0  0
    0.0424   -1.5733   -1.0611 C   0  0  0  0  0  0  0  0  0  0  0  0
   -1.2283   -0.8872   -0.5502 C   0  0  2  0  0  0  0  0  0  0  0  0
   -1.1457    0.5420   -0.6382 O   0  0  0  0  0  0  0  0  0  0  0  0
   -2.0374    1.0263    0.3803 C   0  0  0  0  0  0  0  0  0  0  0  0
   -1.2748    2.0038    1.2669 C   0  0  0  0  0  0  0  0  0  0  0  0
   -3.2335    1.6965   -0.2818 C   0  0  0  0  0  0  0  0  0  0  0  0
   -2.5094   -0.0742    1.1732 O   0  0  0  0  0  0  0  0  0  0  0  0
   -1.5956   -1.1374    0.8944 C   0  0  0  0  0  0  0  0  0  0  0  0
   -0.1966   -2.9904   -1.1843 O   0  0  0  0  0  0  0  0  0  0  0  0
    0.7472   -3.6743   -0.4813 C   0  0  0  0  0  0  0  0  0  0  0  0
    0.8367   -4.8841   -0.3736 O   0  0  0  0  0  0  0  0  0  0  0  0
    1.6527   -2.7178    0.1653 C   0  0  0  0  0  0  0  0  0  0  0  0
    2.6843   -3.0635    0.9881 O   0  0  0  0  0  0  0  0  0  0  0  0
    2.9280    3.8262    0.2418 H   0  0  0  0  0  0  0  0  0  0  0  0
    1.6194    3.2579   -0.9467 H   0  0  0  0  0  0  0  0  0  0  0  0
    3.6480    1.5402    0.6035 H   0  0  0  0  0  0  0  0  0  0  0  0
    1.3814    0.8468   -1.3908 H   0  0  0  0  0  0  0  0  0  0  0  0
    2.9752    0.0451   -1.3539 H   0  0  0  0  0  0  0  0  0  0  0  0
    0.2878   -1.1939   -2.0600 H   0  0  0  0  0  0  0  0  0  0  0  0
   -2.0730   -1.1912   -1.1834 H   0  0  0  0  0  0  0  0  0  0  0  0
   -0.4084    1.5145    1.7261 H   0  0  0  0  0  0  0  0  0  0  0  0
   -0.8951    2.8519    0.6876 H   0  0  0  0  0  0  0  0  0  0  0  0
   -1.9051    2.3764    2.0809 H   0  0  0  0  0  0  0  0  0  0  0  0
   -3.7705    0.9818   -0.9160 H   0  0  0  0  0  0  0  0  0  0  0  0
   -2.9200    2.5263   -0.9239 H   0  0  0  0  0  0  0  0  0  0  0  0
   -3.9458    2.0660    0.4633 H   0  0  0  0  0  0  0  0  0  0  0  0
   -2.0783   -2.1050    1.0552 H   0  0  0  0  0  0  0  0  0  0  0  0
   -0.7532   -1.0377    1.5858 H   0  0  0  0  0  0  0  0  0  0  0  0
    2.6764   -4.0405    1.0351 H   0  0  0  0  0  0  0  0  0  0  0  0
  1  2  2  3
  2  3  1  0
  3  4  1  0
  4  5  1  0
  5  6  1  0
  6  7  1  0
  7  8  1  0
  8  9  1  0
  9 10  1  0
  9 11  1  0
  9 12  1  0
 12 13  1  0
  6 14  1  0
 14 15  1  0
 15 16  2  0
 15 17  1  0
 17 18  1  0
 17  5  2  0
 13  7  1  0
  1 19  1  0
  1 20  1  0
  2 21  1  0
  3 22  1  0
  3 23  1  0
  6 24  1  0
  7 25  1  6
 10 26  1  0
 10 27  1  0
 10 28  1  0
 11 29  1  0
 11 30  1  0
 11 31  1  0
 13 32  1  0
 13 33  1  0
 18 34  1  0
M  END
$$$$
