
     RDKit          3D

 45 46  0  0  0  0  0  0  0  0999 V2000
   -3.6187    3.4753    0.9027 C   0  0  0  0  0  0  0  0  0  0  0  0
   -2.2113    3.0258    1.2514 C   0  0  0  0  0  0  0  0  0  0  0  0
   -1.9723    1.5666    0.8761 C   0  0  0  0  0  0  0  0  0  0  0  0
   -0.6296    1.2370    1.2391 O   0  0  0  0  0  0  0  0  0  0  0  0
   -0.1970   -0.0365    0.9963 C   0  0  0  0  0  0  0  0  0  0  0  0
    1.1941   -0.3691    1.3989 C   0  0  2  0  0  0  0  0  0  0  0  0
    2.2620    0.5145    0.7466 C   0  0  1  0  0  0  0  0  0  0  0  0
    3.5774    0.1823    1.2252 O   0  0  0  0  0  0  0  0  0  0  0  0
    4.4657    0.5844    0.1701 C   0  0  0  0  0  0  0  0  0  0  0  0
    5.2455    1.8155    0.6127 C   0  0  0  0  0  0  0  0  0  0  0  0
    5.3985   -0.5774   -0.1490 C   0  0  0  0  0  0  0  0  0  0  0  0
    3.7037    0.9207   -1.0001 O   0  0  0  0  0  0  0  0  0  0  0  0
    2.4061    0.3764   -0.7512 C   0  0  0  0  0  0  0  0  0  0  0  0
    1.3453   -1.7401    1.0083 O   0  0  0  0  0  0  0  0  0  0  0  0
    0.1836   -2.1929    0.4597 C   0  0  0  0  0  0  0  0  0  0  0  0
    0.0225   -3.3240    0.0383 O   0  0  0  0  0  0  0  0  0  0  0  0
   -0.8098   -1.0930    0.4482 C   0  0  0  0  0  0  0  0  0  0  0  0
   -2.0932   -1.1191   -0.0287 O   0  0  0  0  0  0  0  0  0  0  0  0
   -2.5658   -2.3755   -0.5173 C   0  0  0  0  0  0  0  0  0  0  0  0
   -4.0180   -2.1884   -0.9465 C   0  0  0  0  0  0  0  0  0  0  0  0
   -4.6181   -3.4742   -1.4862 C   0  0  0  0  0  0  0  0  0  0  0  0
   -4.3648    2.8765    1.4347 H   0  0  0  0  0  0  0  0  0  0  0  0
   -3.8054    3.3816   -0.1718 H   0  0  0  0  0  0  0  0  0  0  0  0
   -3.7624    4.5237    1.1822 H   0  0  0  0  0  0  0  0  0  0  0  0
   -1.4794    3.6616    0.7389 H   0  0  0  0  0  0  0  0  0  0  0  0
   -2.0313    3.1636    2.3244 H   0  0  0  0  0  0  0  0  0  0  0  0
   -2.6755    0.9287    1.4242 H   0  0  0  0  0  0  0  0  0  0  0  0
   -2.1085    1.4413   -0.2044 H   0  0  0  0  0  0  0  0  0  0  0  0
    1.3016   -0.3328    2.4894 H   0  0  0  0  0  0  0  0  0  0  0  0
    2.0949    1.5665    1.0132 H   0  0  0  0  0  0  0  0  0  0  0  0
    4.5622    2.6429    0.8361 H   0  0  0  0  0  0  0  0  0  0  0  0
    5.8204    1.6163    1.5230 H   0  0  0  0  0  0  0  0  0  0  0  0
    5.9241    2.1609   -0.1743 H   0  0  0  0  0  0  0  0  0  0  0  0
    4.8246   -1.4593   -0.4562 H   0  0  0  0  0  0  0  0  0  0  0  0
    5.9878   -0.8663    0.7275 H   0  0  0  0  0  0  0  0  0  0  0  0
    6.0754   -0.3288   -0.9730 H   0  0  0  0  0  0  0  0  0  0  0  0
    2.4112   -0.6647   -1.0904 H   0  0  0  0  0  0  0  0  0  0  0  0
    1.6499    0.9324   -1.3116 H   0  0  0  0  0  0  0  0  0  0  0  0
   -1.9685   -2.6884   -1.3814 H   0  0  0  0  0  0  0  0  0  0  0  0
   -2.5149   -3.1306    0.2758 H   0  0  0  0  0  0  0  0  0  0  0  0
   -4.6094   -1.8299   -0.0953 H   0  0  0  0  0  0  0  0  0  0  0  0
   -4.0778   -1.4011   -1.7076 H   0  0  0  0  0  0  0  0  0  0  0  0
   -4.6029   -4.2629   -0.7273 H   0  0  0  0  0  0  0  0  0  0  0  0
   -4.0640   -3.8284   -2.3613 H   0  0  0  0  0  0  0  0  0  0  0  0
   -5.6580   -3.3111   -1.7859 H   0  0  0  0  0  0  0  0  0  0  0  0
  1  2  1  0
  2  3  1  0
  3  4  1  0
  4  5  1  0
  5  6  1  0
  6  7  1  0
  7  8  1  0
  8  9  1  0
  9 10  1  0
  9 11  1  0
  9 12  1  0
 12 13  1  0
  6 14  1  0
 14 15  1  0
 15 16  2  0
 15 17  1  0
 17 18  1  0
 18 19  1  0
 19 20  1  0
 20 21  1  0
 17  5  2  0
 13  7  1  0
  1 22  1  0
  1 23  1  0
  1 24  1  0
  2 25  1  0
  2 26  1  0
  3 27  1  0
  3 28  1  0
  6 29  1  1
  7 30  1  6
 10 31  1  0
 10 32  1  0
 10 33  1  0
 11 34  1  0
 11 35  1  0
 11 36  1  0
 13 37  1  0
 13 38  1  0
 19 39  1  0
 19 40  1  0
 20 41  1  0
 20 42  1  0
 21 43  1  0
 21 44  1  0
 21 45  1  0
M  END
$$$$
