
     RDKit          3D

 45 46  0  0  0  0  0  0  0  0999 V2000
    5.0427   -0.2358    1.8152 C   0  0  0  0  0  0  0  0  0  0  0  0
    5.3234   -0.9170    0.4847 C   0  0  0  0  0  0  0  0  0  0  0  0
    4.0941   -1.5788   -0.1456 C   0  0  0  0  0  0  0  0  0  0  0  0
    3.3281   -0.7016   -1.1421 C   0  0  0  0  0  0  0  0  0  0  0  0
    2.5939    0.5096   -0.5645 C   0  0  0  0  0  0  0  0  0  0  0  0
    1.5505    0.1985    0.5133 C   0  0  0  0  0  0  0  0  0  0  0  0
    0.4322   -0.7600    0.0923 C   0  0  0  0  0  0  0  0  0  0  0  0
   -0.3820   -0.3265   -1.1302 C   0  0  0  0  0  0  0  0  0  0  0  0
   -1.0780    1.0246   -0.9822 C   0  0  0  0  0  0  0  0  0  0  0  0
   -1.9351    1.0132    0.1667 O   0  0  0  0  0  0  0  0  0  0  0  0
   -3.1504    1.6266   -0.2863 C   0  0  2  0  0  0  0  0  0  0  0  0
   -4.3603    1.2451    0.5760 C   0  0  0  0  0  0  0  0  0  0  0  0
   -4.1789    1.8426    1.8768 O   0  0  0  0  0  0  0  0  0  0  0  0
   -4.0334    0.8643    2.8231 C   0  0  0  0  0  0  0  0  0  0  0  0
   -3.7856    1.0619    3.9982 O   0  0  0  0  0  0  0  0  0  0  0  0
   -4.2970   -0.4362    2.1822 C   0  0  0  0  0  0  0  0  0  0  0  0
   -4.3792   -1.6434    2.8153 O   0  0  0  0  0  0  0  0  0  0  0  0
   -4.5191   -0.1982    0.8941 C   0  0  0  0  0  0  0  0  0  0  0  0
   -4.9222   -1.1575   -0.0019 O   0  0  0  0  0  0  0  0  0  0  0  0
   -3.2160    1.1941   -1.7288 C   0  0  0  0  0  0  0  0  0  0  0  0
   -1.8589    1.2919   -2.1603 O   0  0  0  0  0  0  0  0  0  0  0  0
    4.5865   -0.9333    2.5249 H   0  0  0  0  0  0  0  0  0  0  0  0
    5.9786    0.1247    2.2547 H   0  0  0  0  0  0  0  0  0  0  0  0
    4.3801    0.6246    1.7045 H   0  0  0  0  0  0  0  0  0  0  0  0
    5.7827   -0.2059   -0.2111 H   0  0  0  0  0  0  0  0  0  0  0  0
    6.0712   -1.6981    0.6709 H   0  0  0  0  0  0  0  0  0  0  0  0
    4.4499   -2.4510   -0.7104 H   0  0  0  0  0  0  0  0  0  0  0  0
    3.4244   -1.9766    0.6245 H   0  0  0  0  0  0  0  0  0  0  0  0
    2.6071   -1.3355   -1.6723 H   0  0  0  0  0  0  0  0  0  0  0  0
    4.0272   -0.3463   -1.9100 H   0  0  0  0  0  0  0  0  0  0  0  0
    3.3241    1.2178   -0.1582 H   0  0  0  0  0  0  0  0  0  0  0  0
    2.1080    1.0423   -1.3910 H   0  0  0  0  0  0  0  0  0  0  0  0
    1.1089    1.1439    0.8506 H   0  0  0  0  0  0  0  0  0  0  0  0
    2.0480   -0.2216    1.3948 H   0  0  0  0  0  0  0  0  0  0  0  0
   -0.2452   -0.8934    0.9452 H   0  0  0  0  0  0  0  0  0  0  0  0
    0.8568   -1.7513   -0.1056 H   0  0  0  0  0  0  0  0  0  0  0  0
    0.2440   -0.3194   -2.0300 H   0  0  0  0  0  0  0  0  0  0  0  0
   -1.1436   -1.0967   -1.3123 H   0  0  0  0  0  0  0  0  0  0  0  0
   -0.3526    1.8374   -0.8749 H   0  0  0  0  0  0  0  0  0  0  0  0
   -2.9853    2.7106   -0.2229 H   0  0  0  0  0  0  0  0  0  0  0  0
   -5.2825    1.6559    0.1506 H   0  0  0  0  0  0  0  0  0  0  0  0
   -4.5686   -2.2960    2.1158 H   0  0  0  0  0  0  0  0  0  0  0  0
   -5.3078   -0.7347   -0.7894 H   0  0  0  0  0  0  0  0  0  0  0  0
   -3.8573    1.8331   -2.3415 H   0  0  0  0  0  0  0  0  0  0  0  0
   -3.5231    0.1521   -1.8551 H   0  0  0  0  0  0  0  0  0  0  0  0
  1  2  1  0
  2  3  1  0
  3  4  1  0
  4  5  1  0
  5  6  1  0
  6  7  1  0
  7  8  1  0
  8  9  1  0
  9 10  1  0
 10 11  1  0
 11 12  1  0
 12 13  1  0
 13 14  1  0
 14 15  2  0
 14 16  1  0
 16 17  1  0
 16 18  2  0
 18 19  1  0
 11 20  1  0
 20 21  1  0
 21  9  1  0
 18 12  1  0
  1 22  1  0
  1 23  1  0
  1 24  1  0
  2 25  1  0
  2 26  1  0
  3 27  1  0
  3 28  1  0
  4 29  1  0
  4 30  1  0
  5 31  1  0
  5 32  1  0
  6 33  1  0
  6 34  1  0
  7 35  1  0
  7 36  1  0
  8 37  1  0
  8 38  1  0
  9 39  1  0
 11 40  1  6
 12 41  1  0
 17 42  1  0
 19 43  1  0
 20 44  1  0
 20 45  1  0
M  END
$$$$
