
     RDKit          3D

 37 39  0  0  0  0  0  0  0  0999 V2000
   -3.5183   -1.4318    0.6054 C   0  0  0  0  0  0  0  0  0  0  0  0
   -3.2591    0.0079    0.1819 C   0  0  0  0  0  0  0  0  0  0  0  0
   -1.8771    0.3273    0.4098 O   0  0  0  0  0  0  0  0  0  0  0  0
   -1.2921    0.3872   -0.9033 C   0  0  2  0  0  0  0  0  0  0  0  0
   -0.0778    1.3179   -0.9592 C   0  0  1  0  0  0  0  0  0  0  0  0
   -0.4294    2.6301   -0.4870 O   0  0  0  0  0  0  0  0  0  0  0  0
    0.2811    2.8965    0.6402 C   0  0  0  0  0  0  0  0  0  0  0  0
    0.2000    3.8969    1.3323 O   0  0  0  0  0  0  0  0  0  0  0  0
    1.2312    1.8027    0.8915 C   0  0  0  0  0  0  0  0  0  0  0  0
    2.1360    1.8110    1.9136 O   0  0  0  0  0  0  0  0  0  0  0  0
    1.0308    0.8902   -0.0612 C   0  0  0  0  0  0  0  0  0  0  0  0
    1.6501   -0.2978   -0.3255 O   0  0  0  0  0  0  0  0  0  0  0  0
    2.6820   -0.7020    0.5766 C   0  0  0  0  0  0  0  0  0  0  0  0
    3.1796   -2.0435    0.1294 C   0  0  0  0  0  0  0  0  0  0  0  0
    4.2099   -2.1549   -0.9654 C   0  0  0  0  0  0  0  0  0  0  0  0
    4.5831   -2.4874    0.4537 C   0  0  0  0  0  0  0  0  0  0  0  0
   -2.4480    0.8566   -1.7556 C   0  0  0  0  0  0  0  0  0  0  0  0
   -3.5578    0.1363   -1.2171 O   0  0  0  0  0  0  0  0  0  0  0  0
   -4.1191    0.9834    0.9756 C   0  0  0  0  0  0  0  0  0  0  0  0
   -4.5614   -1.7160    0.4317 H   0  0  0  0  0  0  0  0  0  0  0  0
   -3.2733   -1.5860    1.6614 H   0  0  0  0  0  0  0  0  0  0  0  0
   -2.8947   -2.1212    0.0247 H   0  0  0  0  0  0  0  0  0  0  0  0
   -1.0100   -0.6370   -1.1803 H   0  0  0  0  0  0  0  0  0  0  0  0
    0.2831    1.4160   -1.9895 H   0  0  0  0  0  0  0  0  0  0  0  0
    1.9671    2.6418    2.4045 H   0  0  0  0  0  0  0  0  0  0  0  0
    3.4968    0.0318    0.5666 H   0  0  0  0  0  0  0  0  0  0  0  0
    2.2794   -0.8008    1.5913 H   0  0  0  0  0  0  0  0  0  0  0  0
    2.3952   -2.7915    0.1622 H   0  0  0  0  0  0  0  0  0  0  0  0
    4.6081   -1.2435   -1.3969 H   0  0  0  0  0  0  0  0  0  0  0  0
    4.1108   -2.9719   -1.6710 H   0  0  0  0  0  0  0  0  0  0  0  0
    5.2396   -1.8026    0.9786 H   0  0  0  0  0  0  0  0  0  0  0  0
    4.7391   -3.5303    0.7063 H   0  0  0  0  0  0  0  0  0  0  0  0
   -2.6564    1.9263   -1.6464 H   0  0  0  0  0  0  0  0  0  0  0  0
   -2.3221    0.6230   -2.8161 H   0  0  0  0  0  0  0  0  0  0  0  0
   -3.9149    2.0154    0.6678 H   0  0  0  0  0  0  0  0  0  0  0  0
   -5.1855    0.8006    0.8079 H   0  0  0  0  0  0  0  0  0  0  0  0
   -3.9062    0.9194    2.0478 H   0  0  0  0  0  0  0  0  0  0  0  0
  1  2  1  0
  2  3  1  0
  3  4  1  0
  4  5  1  0
  5  6  1  0
  6  7  1  0
  7  8  2  0
  7  9  1  0
  9 10  1  0
  9 11  2  0
 11 12  1  0
 12 13  1  0
 13 14  1  0
 14 15  1  0
 15 16  1  0
  4 17  1  0
 17 18  1  0
  2 19  1  0
 18  2  1  0
 11  5  1  0
 16 14  1  0
  1 20  1  0
  1 21  1  0
  1 22  1  0
  4 23  1  6
  5 24  1  6
 10 25  1  0
 13 26  1  0
 13 27  1  0
 14 28  1  0
 15 29  1  0
 15 30  1  0
 16 31  1  0
 16 32  1  0
 17 33  1  0
 17 34  1  0
 19 35  1  0
 19 36  1  0
 19 37  1  0
M  END
$$$$
