
     RDKit          3D

 30 31  0  0  0  0  0  0  0  0999 V2000
    2.3360   -2.4017   -0.1024 C   0  0  0  0  0  0  0  0  0  0  0  0
    2.4238   -1.1606   -0.9537 C   0  0  0  0  0  0  0  0  0  0  0  0
    1.8199    0.1280   -0.4832 C   0  0  0  0  0  0  0  0  0  0  0  0
    0.4191    0.0751   -0.7603 O   0  0  0  0  0  0  0  0  0  0  0  0
   -0.3364    1.1401   -0.3635 C   0  0  0  0  0  0  0  0  0  0  0  0
   -1.8100    1.0759   -0.5758 C   0  0  1  0  0  0  0  0  0  0  0  0
   -2.5837    0.0256    0.2442 C   0  0  2  0  0  0  0  0  0  0  0  0
   -2.4654    0.2697    1.6615 O   0  0  0  0  0  0  0  0  0  0  0  0
   -2.1510   -1.4159   -0.0272 C   0  0  0  0  0  0  0  0  0  0  0  0
   -3.0390   -2.3034    0.6584 O   0  0  0  0  0  0  0  0  0  0  0  0
   -2.2759    2.3796   -0.1667 O   0  0  0  0  0  0  0  0  0  0  0  0
   -1.2270    3.0932    0.3209 C   0  0  0  0  0  0  0  0  0  0  0  0
   -1.2731    4.2125    0.7999 O   0  0  0  0  0  0  0  0  0  0  0  0
    0.0079    2.3114    0.1751 C   0  0  0  0  0  0  0  0  0  0  0  0
    1.2427    2.7826    0.5156 O   0  0  0  0  0  0  0  0  0  0  0  0
    3.6610   -1.7155   -0.2954 C   0  0  0  0  0  0  0  0  0  0  0  0
    2.1736   -3.3487   -0.6046 H   0  0  0  0  0  0  0  0  0  0  0  0
    1.8610   -2.3308    0.8698 H   0  0  0  0  0  0  0  0  0  0  0  0
    2.3266   -1.2796   -2.0270 H   0  0  0  0  0  0  0  0  0  0  0  0
    2.2816    0.9541   -1.0357 H   0  0  0  0  0  0  0  0  0  0  0  0
    1.9860    0.2576    0.5930 H   0  0  0  0  0  0  0  0  0  0  0  0
   -2.0329    0.9588   -1.6428 H   0  0  0  0  0  0  0  0  0  0  0  0
   -3.6550    0.1240    0.0280 H   0  0  0  0  0  0  0  0  0  0  0  0
   -2.8787    1.1383    1.8273 H   0  0  0  0  0  0  0  0  0  0  0  0
   -2.1898   -1.6528   -1.0941 H   0  0  0  0  0  0  0  0  0  0  0  0
   -1.1476   -1.6222    0.3556 H   0  0  0  0  0  0  0  0  0  0  0  0
   -3.0494   -1.9879    1.5837 H   0  0  0  0  0  0  0  0  0  0  0  0
    1.0943    3.6820    0.8744 H   0  0  0  0  0  0  0  0  0  0  0  0
    4.3964   -2.2021   -0.9263 H   0  0  0  0  0  0  0  0  0  0  0  0
    4.0851   -1.1874    0.5512 H   0  0  0  0  0  0  0  0  0  0  0  0
  1  2  1  0
  2  3  1  0
  3  4  1  0
  4  5  1  0
  5  6  1  0
  6  7  1  0
  7  8  1  0
  7  9  1  0
  9 10  1  0
  6 11  1  0
 11 12  1  0
 12 13  2  0
 12 14  1  0
 14 15  1  0
  2 16  1  0
 16  1  1  0
 14  5  2  0
  1 17  1  0
  1 18  1  0
  2 19  1  0
  3 20  1  0
  3 21  1  0
  6 22  1  6
  7 23  1  6
  8 24  1  0
  9 25  1  0
  9 26  1  0
 10 27  1  0
 15 28  1  0
 16 29  1  0
 16 30  1  0
M  END
$$$$
