
     RDKit          3D

 18 18  0  0  0  0  0  0  0  0999 V2000
    1.8371    0.1093   -0.7018 C   0  0  0  0  0  0  0  0  0  0  0  0
    2.9773    0.5377    0.0373 O   0  0  0  0  0  0  0  0  0  0  0  0
    0.6170    0.0353    0.2112 C   0  0  1  0  0  0  0  0  0  0  0  0
    0.2718    1.3599    0.6319 O   0  0  0  0  0  0  0  0  0  0  0  0
   -1.0902    1.4354    0.7611 C   0  0  0  0  0  0  0  0  0  0  0  0
   -1.6721    2.4331    1.1561 O   0  0  0  0  0  0  0  0  0  0  0  0
   -1.7377    0.1275    0.3322 C   0  0  2  0  0  0  0  0  0  0  0  0
   -2.0777   -0.7302    1.4130 O   0  0  0  0  0  0  0  0  0  0  0  0
   -0.6178   -0.4826   -0.5027 C   0  0  2  0  0  0  0  0  0  0  0  0
   -0.7028   -1.9060   -0.4977 O   0  0  0  0  0  0  0  0  0  0  0  0
    1.6849    0.8268   -1.5149 H   0  0  0  0  0  0  0  0  0  0  0  0
    2.0665   -0.8695   -1.1330 H   0  0  0  0  0  0  0  0  0  0  0  0
    2.7309    1.3682    0.4880 H   0  0  0  0  0  0  0  0  0  0  0  0
    0.8635   -0.5536    1.1039 H   0  0  0  0  0  0  0  0  0  0  0  0
   -2.6243    0.3127   -0.2804 H   0  0  0  0  0  0  0  0  0  0  0  0
   -1.8330   -1.6336    1.1241 H   0  0  0  0  0  0  0  0  0  0  0  0
   -0.6753   -0.1112   -1.5332 H   0  0  0  0  0  0  0  0  0  0  0  0
   -0.0179   -2.2591   -1.0951 H   0  0  0  0  0  0  0  0  0  0  0  0
  1  2  1  0
  1  3  1  0
  3  4  1  0
  4  5  1  0
  5  6  2  0
  5  7  1  0
  7  8  1  0
  7  9  1  0
  9 10  1  0
  9  3  1  0
  1 11  1  0
  1 12  1  0
  2 13  1  0
  3 14  1  1
  7 15  1  6
  8 16  1  0
  9 17  1  6
 10 18  1  0
M  END
$$$$
