
     RDKit          3D

 22 22  0  0  0  0  0  0  0  0999 V2000
   -2.3101   -0.4222    0.5208 C   0  0  0  0  0  0  0  0  0  0  0  0
   -2.8728   -1.1028   -0.5969 O   0  0  0  0  0  0  0  0  0  0  0  0
   -0.9979    0.2784    0.1385 C   0  0  1  0  0  0  0  0  0  0  0  0
   -0.4841    0.9007    1.3291 O   0  0  0  0  0  0  0  0  0  0  0  0
    0.7764    1.3886    1.3570 C   0  0  0  0  0  0  0  0  0  0  0  0
    1.0719    2.3242    2.0983 O   0  0  0  0  0  0  0  0  0  0  0  0
    1.8413    0.6487    0.5552 C   0  0  2  0  0  0  0  0  0  0  0  0
    2.9216    1.5446    0.2564 O   0  0  0  0  0  0  0  0  0  0  0  0
    1.3137    0.0380   -0.7344 C   0  0  1  0  0  0  0  0  0  0  0  0
    2.2531   -0.9227   -1.2512 O   0  0  0  0  0  0  0  0  0  0  0  0
   -0.0037   -0.6914   -0.4949 C   0  0  2  0  0  0  0  0  0  0  0  0
   -0.4601   -1.1926   -1.7580 O   0  0  0  0  0  0  0  0  0  0  0  0
   -2.1403   -1.1476    1.3243 H   0  0  0  0  0  0  0  0  0  0  0  0
   -3.0331    0.3129    0.8916 H   0  0  0  0  0  0  0  0  0  0  0  0
   -3.7522   -1.4216   -0.3175 H   0  0  0  0  0  0  0  0  0  0  0  0
   -1.2444    1.0679   -0.5840 H   0  0  0  0  0  0  0  0  0  0  0  0
    2.2522   -0.1356    1.2020 H   0  0  0  0  0  0  0  0  0  0  0  0
    3.1073    2.0370    1.0797 H   0  0  0  0  0  0  0  0  0  0  0  0
    1.2033    0.8050   -1.5111 H   0  0  0  0  0  0  0  0  0  0  0  0
    1.8011   -1.3352   -2.0146 H   0  0  0  0  0  0  0  0  0  0  0  0
    0.1682   -1.5577    0.1559 H   0  0  0  0  0  0  0  0  0  0  0  0
   -1.4114   -1.4167   -1.6463 H   0  0  0  0  0  0  0  0  0  0  0  0
  1  2  1  0
  1  3  1  0
  3  4  1  0
  4  5  1  0
  5  6  2  0
  5  7  1  0
  7  8  1  0
  7  9  1  0
  9 10  1  0
  9 11  1  0
 11 12  1  0
 11  3  1  0
  1 13  1  0
  1 14  1  0
  2 15  1  0
  3 16  1  6
  7 17  1  1
  8 18  1  0
  9 19  1  6
 10 20  1  0
 11 21  1  1
 12 22  1  0
M  END
$$$$
