
     RDKit          3D

 39 40  0  0  0  0  0  0  0  0999 V2000
    2.8368    2.5871    0.2379 C   0  0  0  0  0  0  0  0  0  0  0  0
    3.7070    1.3442    0.1345 C   0  0  0  0  0  0  0  0  0  0  0  0
    2.9822    0.1407   -0.4655 C   0  0  0  0  0  0  0  0  0  0  0  0
    1.8184   -0.3605    0.3848 C   0  0  0  0  0  0  0  0  0  0  0  0
    1.3001   -1.5429   -0.2352 O   0  0  0  0  0  0  0  0  0  0  0  0
    0.3363   -2.1638    0.5181 C   0  0  0  0  0  0  0  0  0  0  0  0
   -0.9281   -1.5231    0.9786 C   0  0  1  0  0  0  0  0  0  0  0  0
   -1.8415   -1.0606   -0.1741 C   0  0  2  0  0  0  0  0  0  0  0  0
   -1.3359    0.1440   -0.7766 O   0  0  0  0  0  0  0  0  0  0  0  0
   -2.1459    1.2185   -0.2769 C   0  0  0  0  0  0  0  0  0  0  0  0
   -2.8655    1.8731   -1.4533 C   0  0  0  0  0  0  0  0  0  0  0  0
   -1.2679    2.2297    0.4469 C   0  0  0  0  0  0  0  0  0  0  0  0
   -3.1032    0.6970    0.6494 O   0  0  0  0  0  0  0  0  0  0  0  0
   -3.2317   -0.6777    0.2928 C   0  0  0  0  0  0  0  0  0  0  0  0
   -1.5741   -2.5879    1.7059 O   0  0  0  0  0  0  0  0  0  0  0  0
   -0.8432   -3.7389    1.6154 C   0  0  0  0  0  0  0  0  0  0  0  0
   -1.1687   -4.8092    2.0933 O   0  0  0  0  0  0  0  0  0  0  0  0
    0.3786   -3.4501    0.8492 C   0  0  0  0  0  0  0  0  0  0  0  0
    1.3609   -4.3471    0.5416 O   0  0  0  0  0  0  0  0  0  0  0  0
    2.3979    2.8424   -0.7317 H   0  0  0  0  0  0  0  0  0  0  0  0
    2.0269    2.4494    0.9602 H   0  0  0  0  0  0  0  0  0  0  0  0
    3.4370    3.4389    0.5734 H   0  0  0  0  0  0  0  0  0  0  0  0
    4.0954    1.0883    1.1271 H   0  0  0  0  0  0  0  0  0  0  0  0
    4.5745    1.5766   -0.4947 H   0  0  0  0  0  0  0  0  0  0  0  0
    2.6198    0.3819   -1.4728 H   0  0  0  0  0  0  0  0  0  0  0  0
    3.7014   -0.6772   -0.6007 H   0  0  0  0  0  0  0  0  0  0  0  0
    1.0382    0.4019    0.4385 H   0  0  0  0  0  0  0  0  0  0  0  0
    2.1678   -0.5948    1.3979 H   0  0  0  0  0  0  0  0  0  0  0  0
   -0.7190   -0.7101    1.6817 H   0  0  0  0  0  0  0  0  0  0  0  0
   -1.9093   -1.8475   -0.9348 H   0  0  0  0  0  0  0  0  0  0  0  0
   -2.1512    2.2847   -2.1743 H   0  0  0  0  0  0  0  0  0  0  0  0
   -3.5353    2.6705   -1.1145 H   0  0  0  0  0  0  0  0  0  0  0  0
   -3.4787    1.1430   -1.9931 H   0  0  0  0  0  0  0  0  0  0  0  0
   -0.7797    1.7679    1.3119 H   0  0  0  0  0  0  0  0  0  0  0  0
   -0.4782    2.6122   -0.2079 H   0  0  0  0  0  0  0  0  0  0  0  0
   -1.8592    3.0696    0.8266 H   0  0  0  0  0  0  0  0  0  0  0  0
   -3.9551   -0.7485   -0.5275 H   0  0  0  0  0  0  0  0  0  0  0  0
   -3.6163   -1.2566    1.1360 H   0  0  0  0  0  0  0  0  0  0  0  0
    2.0083   -3.8651   -0.0057 H   0  0  0  0  0  0  0  0  0  0  0  0
  1  2  1  0
  2  3  1  0
  3  4  1  0
  4  5  1  0
  5  6  1  0
  6  7  1  0
  7  8  1  0
  8  9  1  0
  9 10  1  0
 10 11  1  0
 10 12  1  0
 10 13  1  0
 13 14  1  0
  7 15  1  0
 15 16  1  0
 16 17  2  0
 16 18  1  0
 18 19  1  0
 18  6  2  0
 14  8  1  0
  1 20  1  0
  1 21  1  0
  1 22  1  0
  2 23  1  0
  2 24  1  0
  3 25  1  0
  3 26  1  0
  4 27  1  0
  4 28  1  0
  7 29  1  1
  8 30  1  6
 11 31  1  0
 11 32  1  0
 11 33  1  0
 12 34  1  0
 12 35  1  0
 12 36  1  0
 14 37  1  0
 14 38  1  0
 19 39  1  0
M  END
$$$$
