
     RDKit          3D

 32 33  0  0  0  0  0  0  0  0999 V2000
    4.1991    1.9776   -0.1207 C   0  0  0  0  0  0  0  0  0  0  0  0
    4.7348    2.8708    0.4778 C   0  0  0  0  0  0  0  0  0  0  0  0
    3.5433    0.8849   -0.8533 C   0  0  0  0  0  0  0  0  0  0  0  0
    2.4405    0.4122   -0.0735 O   0  0  0  0  0  0  0  0  0  0  0  0
    1.7013   -0.6113   -0.5926 C   0  0  0  0  0  0  0  0  0  0  0  0
    0.5645   -1.1383    0.2126 C   0  0  1  0  0  0  0  0  0  0  0  0
   -0.4880   -0.0864    0.5757 C   0  0  2  0  0  0  0  0  0  0  0  0
   -1.5235   -0.6500    1.3998 O   0  0  0  0  0  0  0  0  0  0  0  0
   -2.6739    0.1774    1.1628 C   0  0  0  0  0  0  0  0  0  0  0  0
   -3.8608   -0.7219    0.8404 C   0  0  0  0  0  0  0  0  0  0  0  0
   -2.9428    1.0290    2.3965 C   0  0  0  0  0  0  0  0  0  0  0  0
   -2.4196    1.0493    0.0501 O   0  0  0  0  0  0  0  0  0  0  0  0
   -1.2636    0.4970   -0.5824 C   0  0  0  0  0  0  0  0  0  0  0  0
    0.0022   -2.1732   -0.6182 O   0  0  0  0  0  0  0  0  0  0  0  0
    0.7283   -2.2777   -1.7602 C   0  0  0  0  0  0  0  0  0  0  0  0
    0.5374   -3.0507   -2.6823 O   0  0  0  0  0  0  0  0  0  0  0  0
    1.8055   -1.2779   -1.7434 C   0  0  0  0  0  0  0  0  0  0  0  0
    2.7012   -1.1161   -2.7599 O   0  0  0  0  0  0  0  0  0  0  0  0
    5.2075    3.6627    1.0120 H   0  0  0  0  0  0  0  0  0  0  0  0
    3.1843    1.2635   -1.8171 H   0  0  0  0  0  0  0  0  0  0  0  0
    4.2629    0.0740   -1.0136 H   0  0  0  0  0  0  0  0  0  0  0  0
    0.9288   -1.6260    1.1245 H   0  0  0  0  0  0  0  0  0  0  0  0
   -0.0285    0.7183    1.1648 H   0  0  0  0  0  0  0  0  0  0  0  0
   -4.0748   -1.4089    1.6659 H   0  0  0  0  0  0  0  0  0  0  0  0
   -4.7572   -0.1332    0.6194 H   0  0  0  0  0  0  0  0  0  0  0  0
   -3.6505   -1.3356   -0.0431 H   0  0  0  0  0  0  0  0  0  0  0  0
   -2.0823    1.6721    2.6141 H   0  0  0  0  0  0  0  0  0  0  0  0
   -3.8064    1.6854    2.2464 H   0  0  0  0  0  0  0  0  0  0  0  0
   -3.1125    0.4060    3.2807 H   0  0  0  0  0  0  0  0  0  0  0  0
   -0.7179    1.2775   -1.1191 H   0  0  0  0  0  0  0  0  0  0  0  0
   -1.6049   -0.2589   -1.2973 H   0  0  0  0  0  0  0  0  0  0  0  0
    2.4654   -1.7915   -3.4306 H   0  0  0  0  0  0  0  0  0  0  0  0
  1  2  3  0
  1  3  1  0
  3  4  1  0
  4  5  1  0
  5  6  1  0
  6  7  1  0
  7  8  1  0
  8  9  1  0
  9 10  1  0
  9 11  1  0
  9 12  1  0
 12 13  1  0
  6 14  1  0
 14 15  1  0
 15 16  2  0
 15 17  1  0
 17 18  1  0
 17  5  2  0
 13  7  1  0
  2 19  1  0
  3 20  1  0
  3 21  1  0
  6 22  1  1
  7 23  1  1
 10 24  1  0
 10 25  1  0
 10 26  1  0
 11 27  1  0
 11 28  1  0
 11 29  1  0
 13 30  1  0
 13 31  1  0
 18 32  1  0
M  END
$$$$
