
     RDKit          3D

 53 56  0  0  0  0  0  0  0  0999 V2000
   -5.4687   -0.9905   -0.6793 C   0  0  0  0  0  0  0  0  0  0  0  0
   -3.9466   -1.0116   -0.7262 C   0  0  0  0  0  0  0  0  0  0  0  0
   -3.4319   -0.1664    0.3176 O   0  0  0  0  0  0  0  0  0  0  0  0
   -2.8092   -1.0671    1.2455 C   0  0  2  0  0  0  0  0  0  0  0  0
   -1.6926   -0.3915    2.0475 C   0  0  1  0  0  0  0  0  0  0  0  0
   -1.2564   -1.2682    3.0997 O   0  0  0  0  0  0  0  0  0  0  0  0
    0.0947   -1.4510    3.0231 C   0  0  0  0  0  0  0  0  0  0  0  0
    0.7386   -2.1384    3.7950 O   0  0  0  0  0  0  0  0  0  0  0  0
    0.6149   -0.7062    1.8581 C   0  0  0  0  0  0  0  0  0  0  0  0
    1.8896   -0.6558    1.3636 O   0  0  0  0  0  0  0  0  0  0  0  0
    2.8602   -1.4497    2.0490 C   0  0  0  0  0  0  0  0  0  0  0  0
    4.2176   -1.3510    1.3828 C   0  0  0  0  0  0  0  0  0  0  0  0
    4.4251   -0.6454    0.1883 C   0  0  0  0  0  0  0  0  0  0  0  0
    5.6935   -0.5901   -0.3937 C   0  0  0  0  0  0  0  0  0  0  0  0
    6.7690   -1.2422    0.2069 C   0  0  0  0  0  0  0  0  0  0  0  0
    6.5778   -1.9521    1.3898 C   0  0  0  0  0  0  0  0  0  0  0  0
    5.3105   -2.0063    1.9742 C   0  0  0  0  0  0  0  0  0  0  0  0
   -0.4351   -0.0892    1.3188 C   0  0  0  0  0  0  0  0  0  0  0  0
   -0.4049    0.6175    0.1454 O   0  0  0  0  0  0  0  0  0  0  0  0
   -0.8452    1.9696    0.2931 C   0  0  0  0  0  0  0  0  0  0  0  0
   -0.7001    2.6601   -1.0387 C   0  0  0  0  0  0  0  0  0  0  0  0
    0.5711    2.8495   -1.6005 C   0  0  0  0  0  0  0  0  0  0  0  0
    0.7131    3.4846   -2.8350 C   0  0  0  0  0  0  0  0  0  0  0  0
   -0.4135    3.9344   -3.5215 C   0  0  0  0  0  0  0  0  0  0  0  0
   -1.6821    3.7491   -2.9748 C   0  0  0  0  0  0  0  0  0  0  0  0
   -1.8262    3.1135   -1.7399 C   0  0  0  0  0  0  0  0  0  0  0  0
   -2.4041   -2.2445    0.3883 C   0  0  0  0  0  0  0  0  0  0  0  0
   -3.5008   -2.3615   -0.5199 O   0  0  0  0  0  0  0  0  0  0  0  0
   -3.4265   -0.5034   -2.0662 C   0  0  0  0  0  0  0  0  0  0  0  0
   -5.8991   -1.6367   -1.4520 H   0  0  0  0  0  0  0  0  0  0  0  0
   -5.8267   -1.3606    0.2892 H   0  0  0  0  0  0  0  0  0  0  0  0
   -5.8566    0.0263   -0.8029 H   0  0  0  0  0  0  0  0  0  0  0  0
   -3.5949   -1.3947    1.9401 H   0  0  0  0  0  0  0  0  0  0  0  0
   -2.0788    0.5218    2.5164 H   0  0  0  0  0  0  0  0  0  0  0  0
    2.9598   -1.0925    3.0810 H   0  0  0  0  0  0  0  0  0  0  0  0
    2.5546   -2.5031    2.0302 H   0  0  0  0  0  0  0  0  0  0  0  0
    3.6002   -0.1319   -0.3027 H   0  0  0  0  0  0  0  0  0  0  0  0
    5.8397   -0.0386   -1.3189 H   0  0  0  0  0  0  0  0  0  0  0  0
    7.7543   -1.1996   -0.2484 H   0  0  0  0  0  0  0  0  0  0  0  0
    7.4139   -2.4653    1.8582 H   0  0  0  0  0  0  0  0  0  0  0  0
    5.1780   -2.5676    2.8976 H   0  0  0  0  0  0  0  0  0  0  0  0
   -1.8893    2.0018    0.6241 H   0  0  0  0  0  0  0  0  0  0  0  0
   -0.2311    2.4907    1.0391 H   0  0  0  0  0  0  0  0  0  0  0  0
    1.4566    2.4921   -1.0779 H   0  0  0  0  0  0  0  0  0  0  0  0
    1.7040    3.6252   -3.2609 H   0  0  0  0  0  0  0  0  0  0  0  0
   -0.3024    4.4275   -4.4837 H   0  0  0  0  0  0  0  0  0  0  0  0
   -2.5605    4.0965   -3.5131 H   0  0  0  0  0  0  0  0  0  0  0  0
   -2.8257    2.9674   -1.3337 H   0  0  0  0  0  0  0  0  0  0  0  0
   -2.2818   -3.1698    0.9576 H   0  0  0  0  0  0  0  0  0  0  0  0
   -1.5019   -2.0667   -0.2042 H   0  0  0  0  0  0  0  0  0  0  0  0
   -3.7481   -1.1502   -2.8886 H   0  0  0  0  0  0  0  0  0  0  0  0
   -3.7645    0.5186   -2.2622 H   0  0  0  0  0  0  0  0  0  0  0  0
   -2.3313   -0.4873   -2.0756 H   0  0  0  0  0  0  0  0  0  0  0  0
  1  2  1  0
  2  3  1  0
  3  4  1  0
  4  5  1  0
  5  6  1  0
  6  7  1  0
  7  8  2  0
  7  9  1  0
  9 10  1  0
 10 11  1  0
 11 12  1  0
 12 13  2  0
 13 14  1  0
 14 15  2  0
 15 16  1  0
 16 17  2  0
  9 18  2  0
 18 19  1  0
 19 20  1  0
 20 21  1  0
 21 22  2  0
 22 23  1  0
 23 24  2  0
 24 25  1  0
 25 26  2  0
  4 27  1  0
 27 28  1  0
  2 29  1  0
 28  2  1  0
 18  5  1  0
 26 21  1  0
 17 12  1  0
  1 30  1  0
  1 31  1  0
  1 32  1  0
  4 33  1  1
  5 34  1  1
 11 35  1  0
 11 36  1  0
 13 37  1  0
 14 38  1  0
 15 39  1  0
 16 40  1  0
 17 41  1  0
 20 42  1  0
 20 43  1  0
 22 44  1  0
 23 45  1  0
 24 46  1  0
 25 47  1  0
 26 48  1  0
 27 49  1  0
 27 50  1  0
 29 51  1  0
 29 52  1  0
 29 53  1  0
M  END
$$$$
