
     RDKit          3D

 28 29  0  0  0  0  0  0  0  0999 V2000
   -3.0048    0.9573   -0.5655 C   0  0  0  0  0  0  0  0  0  0  0  0
   -2.5114    2.2807   -0.4257 O   0  0  0  0  0  0  0  0  0  0  0  0
   -2.2882   -0.0224    0.3727 C   0  0  1  0  0  0  0  0  0  0  0  0
   -2.8547   -1.3321    0.2205 O   0  0  0  0  0  0  0  0  0  0  0  0
   -0.7635   -0.0281    0.1530 C   0  0  1  0  0  0  0  0  0  0  0  0
   -0.1112   -0.8052    1.1894 O   0  0  0  0  0  0  0  0  0  0  0  0
    1.0907   -1.3614    0.6385 C   0  0  0  0  0  0  0  0  0  0  0  0
    2.2468   -0.8388    1.2728 O   0  0  0  0  0  0  0  0  0  0  0  0
    2.8635    0.0544    0.3298 C   0  0  1  0  0  0  0  0  0  0  0  0
    1.9773    0.2400   -0.7932 O   0  0  0  0  0  0  0  0  0  0  0  0
    1.1759   -0.9445   -0.8128 C   0  0  2  0  0  0  0  0  0  0  0  0
   -0.2660   -0.6412   -1.1593 C   0  0  1  0  0  0  0  0  0  0  0  0
   -0.9486   -1.8574   -1.4873 O   0  0  0  0  0  0  0  0  0  0  0  0
    3.3318    1.3967    0.9741 C   0  0  0  0  0  0  0  0  0  0  0  0
    4.1614    2.4207   -0.2525 Cl  0  0  0  0  0  0  0  0  0  0  0  0
    1.9530    2.3290    1.6440 Cl  0  0  0  0  0  0  0  0  0  0  0  0
    4.5042    1.0818    2.3020 Cl  0  0  0  0  0  0  0  0  0  0  0  0
   -2.8792    0.6540   -1.6105 H   0  0  0  0  0  0  0  0  0  0  0  0
   -4.0833    0.9565   -0.3718 H   0  0  0  0  0  0  0  0  0  0  0  0
   -2.8041    2.6152    0.4415 H   0  0  0  0  0  0  0  0  0  0  0  0
   -2.4745    0.2743    1.4116 H   0  0  0  0  0  0  0  0  0  0  0  0
   -2.9063   -1.5175   -0.7380 H   0  0  0  0  0  0  0  0  0  0  0  0
   -0.3796    0.9934    0.2562 H   0  0  0  0  0  0  0  0  0  0  0  0
    1.0475   -2.4466    0.7716 H   0  0  0  0  0  0  0  0  0  0  0  0
    3.7455   -0.4731   -0.0581 H   0  0  0  0  0  0  0  0  0  0  0  0
    1.6552   -1.6985   -1.4452 H   0  0  0  0  0  0  0  0  0  0  0  0
   -0.3712    0.0541   -1.9970 H   0  0  0  0  0  0  0  0  0  0  0  0
   -1.1057   -2.3414   -0.6489 H   0  0  0  0  0  0  0  0  0  0  0  0
  1  2  1  0
  1  3  1  0
  3  4  1  0
  3  5  1  0
  5  6  1  0
  6  7  1  0
  7  8  1  0
  8  9  1  0
  9 10  1  0
 10 11  1  0
 11 12  1  0
 12 13  1  0
  9 14  1  0
 14 15  1  0
 14 16  1  0
 14 17  1  0
 12  5  1  0
 11  7  1  0
  1 18  1  0
  1 19  1  0
  2 20  1  0
  3 21  1  1
  4 22  1  0
  5 23  1  6
  7 24  1  0
  9 25  1  6
 11 26  1  6
 12 27  1  6
 13 28  1  0
M  END
$$$$
