
     RDKit          3D

 20 20  0  0  0  0  0  0  0  0999 V2000
   -1.5137   -0.1821    0.2844 C   0  0  0  0  0  0  0  0  0  0  0  0
   -0.1701    0.4345    0.1535 C   0  0  1  0  0  0  0  0  0  0  0  0
    0.9279   -0.6150   -0.0779 C   0  0  2  0  0  0  0  0  0  0  0  0
    1.0029   -1.4649    1.0887 O   0  0  0  0  0  0  0  0  0  0  0  0
    2.3013    0.0253   -0.3041 C   0  0  0  0  0  0  0  0  0  0  0  0
    2.7278    0.6217    0.9235 O   0  0  0  0  0  0  0  0  0  0  0  0
   -0.3135    1.3022   -0.9794 O   0  0  0  0  0  0  0  0  0  0  0  0
   -1.6072    1.2653   -1.4322 C   0  0  0  0  0  0  0  0  0  0  0  0
   -2.0296    1.9136   -2.3715 O   0  0  0  0  0  0  0  0  0  0  0  0
   -2.3633    0.3012   -0.6125 C   0  0  0  0  0  0  0  0  0  0  0  0
   -3.6671   -0.0622   -0.7843 O   0  0  0  0  0  0  0  0  0  0  0  0
   -1.7970   -1.1702    1.1929 O   0  0  0  0  0  0  0  0  0  0  0  0
    0.0448    1.0419    1.0408 H   0  0  0  0  0  0  0  0  0  0  0  0
    0.6818   -1.2406   -0.9440 H   0  0  0  0  0  0  0  0  0  0  0  0
    1.6719   -1.0351    1.6669 H   0  0  0  0  0  0  0  0  0  0  0  0
    3.0364   -0.7444   -0.5598 H   0  0  0  0  0  0  0  0  0  0  0  0
    2.2810    0.7822   -1.0934 H   0  0  0  0  0  0  0  0  0  0  0  0
    3.5692    1.0781    0.7350 H   0  0  0  0  0  0  0  0  0  0  0  0
   -3.8475   -0.7253   -0.0908 H   0  0  0  0  0  0  0  0  0  0  0  0
   -0.9360   -1.5260    1.5134 H   0  0  0  0  0  0  0  0  0  0  0  0
  1  2  1  0
  2  3  1  0
  3  4  1  0
  3  5  1  0
  5  6  1  0
  2  7  1  0
  7  8  1  0
  8  9  2  0
  8 10  1  0
 10 11  1  0
  1 12  1  0
 10  1  2  0
  2 13  1  1
  3 14  1  6
  4 15  1  0
  5 16  1  0
  5 17  1  0
  6 18  1  0
 11 19  1  0
 12 20  1  0
M  END
$$$$
