
     RDKit          3D

 36 38  0  0  0  0  0  0  0  0999 V2000
   -3.7296    0.9603   -0.6113 C   0  0  0  0  0  0  0  0  0  0  0  0
   -2.5603    0.0045   -0.4149 C   0  0  0  0  0  0  0  0  0  0  0  0
   -1.4494    0.7251    0.1392 O   0  0  0  0  0  0  0  0  0  0  0  0
   -1.3446    0.2609    1.4907 C   0  0  2  0  0  0  0  0  0  0  0  0
    0.0665    0.3827    2.0639 C   0  0  2  0  0  0  0  0  0  0  0  0
    0.4683    1.7656    2.0319 O   0  0  0  0  0  0  0  0  0  0  0  0
    1.7717    1.8613    1.6372 C   0  0  0  0  0  0  0  0  0  0  0  0
    2.3484    2.9209    1.4499 O   0  0  0  0  0  0  0  0  0  0  0  0
    2.3840    0.4765    1.5338 C   0  0  2  0  0  0  0  0  0  0  0  0
    3.2050    0.1963    0.4207 O   0  0  0  0  0  0  0  0  0  0  0  0
    2.3202   -0.2712   -0.6032 C   0  0  0  0  0  0  0  0  0  0  0  0
    1.0273   -0.5285   -0.0430 O   0  0  0  0  0  0  0  0  0  0  0  0
    1.1747   -0.3897    1.3670 C   0  0  2  0  0  0  0  0  0  0  0  0
    2.1825    0.7863   -1.6911 C   0  0  0  0  0  0  0  0  0  0  0  0
    2.8796   -1.5709   -1.1678 C   0  0  0  0  0  0  0  0  0  0  0  0
   -1.8784   -1.1488    1.4144 C   0  0  0  0  0  0  0  0  0  0  0  0
   -2.9642   -1.0336    0.4949 O   0  0  0  0  0  0  0  0  0  0  0  0
   -2.1276   -0.6196   -1.7360 C   0  0  0  0  0  0  0  0  0  0  0  0
   -4.6039    0.4414   -1.0181 H   0  0  0  0  0  0  0  0  0  0  0  0
   -4.0315    1.3995    0.3465 H   0  0  0  0  0  0  0  0  0  0  0  0
   -3.4596    1.7878   -1.2756 H   0  0  0  0  0  0  0  0  0  0  0  0
   -2.0250    0.8943    2.0751 H   0  0  0  0  0  0  0  0  0  0  0  0
    0.0452    0.1000    3.1242 H   0  0  0  0  0  0  0  0  0  0  0  0
    2.9194    0.2775    2.4678 H   0  0  0  0  0  0  0  0  0  0  0  0
    1.3034   -1.3949    1.7821 H   0  0  0  0  0  0  0  0  0  0  0  0
    1.5098    0.4505   -2.4874 H   0  0  0  0  0  0  0  0  0  0  0  0
    1.7580    1.7104   -1.2839 H   0  0  0  0  0  0  0  0  0  0  0  0
    3.1556    1.0402   -2.1238 H   0  0  0  0  0  0  0  0  0  0  0  0
    3.8780   -1.4235   -1.5926 H   0  0  0  0  0  0  0  0  0  0  0  0
    2.9727   -2.3237   -0.3764 H   0  0  0  0  0  0  0  0  0  0  0  0
    2.2191   -1.9887   -1.9348 H   0  0  0  0  0  0  0  0  0  0  0  0
   -1.1600   -1.8615    0.9972 H   0  0  0  0  0  0  0  0  0  0  0  0
   -2.2344   -1.5250    2.3772 H   0  0  0  0  0  0  0  0  0  0  0  0
   -2.9419   -1.1945   -2.1891 H   0  0  0  0  0  0  0  0  0  0  0  0
   -1.2921   -1.3117   -1.5816 H   0  0  0  0  0  0  0  0  0  0  0  0
   -1.7871    0.1437   -2.4435 H   0  0  0  0  0  0  0  0  0  0  0  0
  1  2  1  0
  2  3  1  0
  3  4  1  0
  4  5  1  0
  5  6  1  0
  6  7  1  0
  7  8  2  0
  7  9  1  0
  9 10  1  0
 10 11  1  0
 11 12  1  0
 12 13  1  0
 11 14  1  0
 11 15  1  0
  4 16  1  0
 16 17  1  0
  2 18  1  0
 17  2  1  0
 13  5  1  0
 13  9  1  0
  1 19  1  0
  1 20  1  0
  1 21  1  0
  4 22  1  1
  5 23  1  1
  9 24  1  1
 13 25  1  1
 14 26  1  0
 14 27  1  0
 14 28  1  0
 15 29  1  0
 15 30  1  0
 15 31  1  0
 16 32  1  0
 16 33  1  0
 18 34  1  0
 18 35  1  0
 18 36  1  0
M  END
$$$$
