
     RDKit          3D

 29 29  0  0  0  0  0  0  0  0999 V2000
    5.2300    0.5354    0.3922 C   0  0  0  0  0  0  0  0  0  0  0  0
    4.0711   -0.3350   -0.0596 C   0  0  0  0  0  0  0  0  0  0  0  0
    2.7287    0.3672    0.1220 C   0  0  0  0  0  0  0  0  0  0  0  0
    1.7065   -0.5225   -0.3257 O   0  0  0  0  0  0  0  0  0  0  0  0
    0.4274   -0.0378   -0.2737 C   0  0  0  0  0  0  0  0  0  0  0  0
   -0.0651    1.2530    0.2566 C   0  0  0  0  0  0  0  0  0  0  0  0
    0.6029    2.1534    0.7331 O   0  0  0  0  0  0  0  0  0  0  0  0
   -1.4298    1.2902    0.1570 O   0  0  0  0  0  0  0  0  0  0  0  0
   -1.8983    0.0931   -0.4697 C   0  0  2  0  0  0  0  0  0  0  0  0
   -2.9215   -0.6385    0.4142 C   0  0  2  0  0  0  0  0  0  0  0  0
   -3.3536   -1.8341   -0.2717 O   0  0  0  0  0  0  0  0  0  0  0  0
   -4.1535    0.2235    0.7086 C   0  0  0  0  0  0  0  0  0  0  0  0
   -4.8832    0.4005   -0.5081 O   0  0  0  0  0  0  0  0  0  0  0  0
   -0.6589   -0.6972   -0.6694 C   0  0  0  0  0  0  0  0  0  0  0  0
   -0.6924   -1.9729   -1.1751 O   0  0  0  0  0  0  0  0  0  0  0  0
    6.1784    0.0077    0.2509 H   0  0  0  0  0  0  0  0  0  0  0  0
    5.1383    0.7911    1.4526 H   0  0  0  0  0  0  0  0  0  0  0  0
    5.2698    1.4655   -0.1836 H   0  0  0  0  0  0  0  0  0  0  0  0
    4.2017   -0.6115   -1.1128 H   0  0  0  0  0  0  0  0  0  0  0  0
    4.0721   -1.2771    0.5017 H   0  0  0  0  0  0  0  0  0  0  0  0
    2.7148    1.2868   -0.4749 H   0  0  0  0  0  0  0  0  0  0  0  0
    2.5813    0.6019    1.1826 H   0  0  0  0  0  0  0  0  0  0  0  0
   -2.3325    0.3485   -1.4438 H   0  0  0  0  0  0  0  0  0  0  0  0
   -2.4619   -0.9349    1.3645 H   0  0  0  0  0  0  0  0  0  0  0  0
   -4.1285   -1.5502   -0.8053 H   0  0  0  0  0  0  0  0  0  0  0  0
   -3.8866    1.2004    1.1220 H   0  0  0  0  0  0  0  0  0  0  0  0
   -4.8160   -0.2961    1.4082 H   0  0  0  0  0  0  0  0  0  0  0  0
   -5.6284    0.9958   -0.3037 H   0  0  0  0  0  0  0  0  0  0  0  0
   -1.6126   -2.3062   -1.0864 H   0  0  0  0  0  0  0  0  0  0  0  0
  1  2  1  0
  2  3  1  0
  3  4  1  0
  4  5  1  0
  5  6  1  0
  6  7  2  0
  6  8  1  0
  8  9  1  0
  9 10  1  0
 10 11  1  0
 10 12  1  0
 12 13  1  0
  9 14  1  0
 14 15  1  0
 14  5  2  0
  1 16  1  0
  1 17  1  0
  1 18  1  0
  2 19  1  0
  2 20  1  0
  3 21  1  0
  3 22  1  0
  9 23  1  6
 10 24  1  1
 11 25  1  0
 12 26  1  0
 12 27  1  0
 13 28  1  0
 15 29  1  0
M  END
$$$$
