
     RDKit          3D

 20 20  0  0  0  0  0  0  0  0999 V2000
   -2.1647   -0.0712   -0.6592 C   0  0  0  0  0  0  0  0  0  0  0  0
   -3.3789    0.6318   -0.3814 O   0  0  0  0  0  0  0  0  0  0  0  0
   -1.1772    0.1662    0.4847 C   0  0  0  0  0  0  0  0  0  0  0  0
    0.1216   -0.6441    0.3505 C   0  0  0  0  0  0  0  0  0  0  0  0
    0.9427   -0.3416    1.5097 O   0  0  0  0  0  0  0  0  0  0  0  0
    2.1367    0.1725    1.1021 C   0  0  0  0  0  0  0  0  0  0  0  0
    3.0475    0.5539    1.8144 O   0  0  0  0  0  0  0  0  0  0  0  0
    2.1691    0.1954   -0.3647 C   0  0  0  0  0  0  0  0  0  0  0  0
    3.2187    0.6091   -1.1317 O   0  0  0  0  0  0  0  0  0  0  0  0
    1.0039   -0.2812   -0.7832 C   0  0  0  0  0  0  0  0  0  0  0  0
    0.6361   -0.4769   -2.0849 O   0  0  0  0  0  0  0  0  0  0  0  0
   -1.8504   -0.2043    1.7107 O   0  0  0  0  0  0  0  0  0  0  0  0
   -1.7832    0.2885   -1.6173 H   0  0  0  0  0  0  0  0  0  0  0  0
   -2.4175   -1.1326   -0.7490 H   0  0  0  0  0  0  0  0  0  0  0  0
   -3.5726    0.4370    0.5581 H   0  0  0  0  0  0  0  0  0  0  0  0
   -0.9665    1.2384    0.5804 H   0  0  0  0  0  0  0  0  0  0  0  0
   -0.0823   -1.7205    0.3768 H   0  0  0  0  0  0  0  0  0  0  0  0
    3.9153    0.8850   -0.4997 H   0  0  0  0  0  0  0  0  0  0  0  0
    1.3898   -0.1883   -2.6404 H   0  0  0  0  0  0  0  0  0  0  0  0
   -1.1882   -0.1170    2.4240 H   0  0  0  0  0  0  0  0  0  0  0  0
  1  2  1  0
  1  3  1  0
  3  4  1  0
  4  5  1  0
  5  6  1  0
  6  7  2  0
  6  8  1  0
  8  9  1  0
  8 10  2  0
 10 11  1  0
  3 12  1  0
 10  4  1  0
  1 13  1  0
  1 14  1  0
  2 15  1  0
  3 16  1  0
  4 17  1  0
  9 18  1  0
 11 19  1  0
 12 20  1  0
M  END
$$$$
