
     RDKit          3D

 41 42  0  0  0  0  0  0  0  0999 V2000
    0.7893   -1.0307    3.6797 C   0  0  0  0  0  0  0  0  0  0  0  0
    1.5214    0.0056    3.2469 C   0  0  0  0  0  0  0  0  0  0  0  0
    1.6042    0.5233    1.8356 C   0  0  0  0  0  0  0  0  0  0  0  0
    0.8219   -0.2875    0.9607 O   0  0  0  0  0  0  0  0  0  0  0  0
    0.7532    0.0586   -0.3582 C   0  0  0  0  0  0  0  0  0  0  0  0
   -0.0715   -0.8012   -1.2513 C   0  0  0  0  0  0  0  0  0  0  0  0
   -1.5599   -0.8224   -0.8926 C   0  0  0  0  0  0  0  0  0  0  0  0
   -1.8343   -1.6360    0.2565 O   0  0  0  0  0  0  0  0  0  0  0  0
   -3.1948   -2.0623    0.0898 C   0  0  0  0  0  0  0  0  0  0  0  0
   -3.2695   -3.5599    0.3570 C   0  0  0  0  0  0  0  0  0  0  0  0
   -4.0887   -1.2833    1.0461 C   0  0  0  0  0  0  0  0  0  0  0  0
   -3.6185   -1.7982   -1.2562 O   0  0  0  0  0  0  0  0  0  0  0  0
   -2.4184   -1.4664   -1.9577 C   0  0  0  0  0  0  0  0  0  0  0  0
    0.1053   -0.2122   -2.5452 O   0  0  0  0  0  0  0  0  0  0  0  0
    0.8971    0.8919   -2.4437 C   0  0  0  0  0  0  0  0  0  0  0  0
    1.1873    1.6113   -3.3824 O   0  0  0  0  0  0  0  0  0  0  0  0
    1.3268    1.0581   -1.0380 C   0  0  0  0  0  0  0  0  0  0  0  0
    2.1467    2.0216   -0.5154 O   0  0  0  0  0  0  0  0  0  0  0  0
    2.7585    2.9095   -1.4509 C   0  0  0  0  0  0  0  0  0  0  0  0
    3.6530    3.8209   -0.6647 C   0  0  0  0  0  0  0  0  0  0  0  0
    4.9695    3.9613   -0.8694 C   0  0  0  0  0  0  0  0  0  0  0  0
    0.1616   -1.6078    3.0060 H   0  0  0  0  0  0  0  0  0  0  0  0
    0.8000   -1.3229    4.7248 H   0  0  0  0  0  0  0  0  0  0  0  0
    2.1258    0.5472    3.9713 H   0  0  0  0  0  0  0  0  0  0  0  0
    2.6544    0.5006    1.5230 H   0  0  0  0  0  0  0  0  0  0  0  0
    1.2302    1.5535    1.8301 H   0  0  0  0  0  0  0  0  0  0  0  0
    0.3383   -1.8182   -1.2708 H   0  0  0  0  0  0  0  0  0  0  0  0
   -1.9313    0.1904   -0.6855 H   0  0  0  0  0  0  0  0  0  0  0  0
   -2.9364   -3.8000    1.3722 H   0  0  0  0  0  0  0  0  0  0  0  0
   -2.6177   -4.1065   -0.3342 H   0  0  0  0  0  0  0  0  0  0  0  0
   -4.2861   -3.9397    0.2115 H   0  0  0  0  0  0  0  0  0  0  0  0
   -4.0300   -0.2086    0.8391 H   0  0  0  0  0  0  0  0  0  0  0  0
   -5.1383   -1.5756    0.9366 H   0  0  0  0  0  0  0  0  0  0  0  0
   -3.7801   -1.4292    2.0865 H   0  0  0  0  0  0  0  0  0  0  0  0
   -1.9821   -2.3962   -2.3396 H   0  0  0  0  0  0  0  0  0  0  0  0
   -2.6425   -0.8020   -2.7965 H   0  0  0  0  0  0  0  0  0  0  0  0
    3.3376    2.3444   -2.1906 H   0  0  0  0  0  0  0  0  0  0  0  0
    1.9950    3.5183   -1.9477 H   0  0  0  0  0  0  0  0  0  0  0  0
    3.1755    4.4033    0.1197 H   0  0  0  0  0  0  0  0  0  0  0  0
    5.4915    3.4036   -1.6412 H   0  0  0  0  0  0  0  0  0  0  0  0
    5.5561    4.6434   -0.2613 H   0  0  0  0  0  0  0  0  0  0  0  0
  1  2  2  3
  2  3  1  0
  3  4  1  0
  4  5  1  0
  5  6  1  0
  6  7  1  0
  7  8  1  0
  8  9  1  0
  9 10  1  0
  9 11  1  0
  9 12  1  0
 12 13  1  0
  6 14  1  0
 14 15  1  0
 15 16  2  0
 15 17  1  0
 17 18  1  0
 18 19  1  0
 19 20  1  0
 20 21  2  3
 17  5  2  0
 13  7  1  0
  1 22  1  0
  1 23  1  0
  2 24  1  0
  3 25  1  0
  3 26  1  0
  6 27  1  0
  7 28  1  0
 10 29  1  0
 10 30  1  0
 10 31  1  0
 11 32  1  0
 11 33  1  0
 11 34  1  0
 13 35  1  0
 13 36  1  0
 19 37  1  0
 19 38  1  0
 20 39  1  0
 21 40  1  0
 21 41  1  0
M  END
$$$$
