
     RDKit          3D

 22 22  0  0  0  0  0  0  0  0999 V2000
   -2.6247    0.3087   -0.1865 C   0  0  0  0  0  0  0  0  0  0  0  0
   -2.5090    1.6856   -0.4995 O   0  0  0  0  0  0  0  0  0  0  0  0
   -1.4066   -0.2122    0.5960 C   0  0  2  0  0  0  0  0  0  0  0  0
   -0.1299   -0.3171   -0.2568 C   0  0  1  0  0  0  0  0  0  0  0  0
    0.2117    0.9049   -0.9272 O   0  0  0  0  0  0  0  0  0  0  0  0
    1.5705    1.0022   -1.0033 C   0  0  0  0  0  0  0  0  0  0  0  0
    2.1821    1.9280   -1.5156 O   0  0  0  0  0  0  0  0  0  0  0  0
    2.2183   -0.2330   -0.4043 C   0  0  1  0  0  0  0  0  0  0  0  0
    3.4388   -0.0337    0.2880 O   0  0  0  0  0  0  0  0  0  0  0  0
    1.1210   -0.6897    0.5368 C   0  0  1  0  0  0  0  0  0  0  0  0
    1.2316    0.0282    1.7709 O   0  0  0  0  0  0  0  0  0  0  0  0
   -1.7141   -1.5120    1.1286 O   0  0  0  0  0  0  0  0  0  0  0  0
   -3.5332    0.1673    0.4098 H   0  0  0  0  0  0  0  0  0  0  0  0
   -2.7563   -0.2583   -1.1148 H   0  0  0  0  0  0  0  0  0  0  0  0
   -3.3277    1.9588   -0.9468 H   0  0  0  0  0  0  0  0  0  0  0  0
   -1.2340    0.4682    1.4374 H   0  0  0  0  0  0  0  0  0  0  0  0
   -0.2906   -1.0718   -1.0395 H   0  0  0  0  0  0  0  0  0  0  0  0
    2.3749   -0.9539   -1.2146 H   0  0  0  0  0  0  0  0  0  0  0  0
    3.9570    0.5934   -0.2552 H   0  0  0  0  0  0  0  0  0  0  0  0
    1.1770   -1.7570    0.7704 H   0  0  0  0  0  0  0  0  0  0  0  0
    2.1860    0.0344    1.9914 H   0  0  0  0  0  0  0  0  0  0  0  0
   -2.1430   -2.0409    0.4349 H   0  0  0  0  0  0  0  0  0  0  0  0
  1  2  1  0
  1  3  1  0
  3  4  1  0
  4  5  1  0
  5  6  1  0
  6  7  2  0
  6  8  1  0
  8  9  1  0
  8 10  1  0
 10 11  1  0
  3 12  1  0
 10  4  1  0
  1 13  1  0
  1 14  1  0
  2 15  1  0
  3 16  1  1
  4 17  1  6
  8 18  1  6
  9 19  1  0
 10 20  1  1
 11 21  1  0
 12 22  1  0
M  END
$$$$
