
     RDKit          3D

 27 28  0  0  0  0  0  0  0  0999 V2000
    2.9122   -1.5276   -0.2547 C   0  0  0  0  0  0  0  0  0  0  0  0
    2.2787   -0.1549   -0.0684 C   0  0  0  0  0  0  0  0  0  0  0  0
    1.1089   -0.0542   -0.8943 O   0  0  0  0  0  0  0  0  0  0  0  0
    0.0007   -0.1588    0.0199 C   0  0  2  0  0  0  0  0  0  0  0  0
   -1.2381    0.5342   -0.5510 C   0  0  1  0  0  0  0  0  0  0  0  0
   -1.7381   -0.2396   -1.6706 O   0  0  0  0  0  0  0  0  0  0  0  0
   -3.0215   -0.6218   -1.4307 C   0  0  0  0  0  0  0  0  0  0  0  0
   -3.7358   -1.2957   -2.1512 O   0  0  0  0  0  0  0  0  0  0  0  0
   -3.4427   -0.0808   -0.1333 C   0  0  0  0  0  0  0  0  0  0  0  0
   -4.6760   -0.2330    0.4300 O   0  0  0  0  0  0  0  0  0  0  0  0
   -2.4073    0.5848    0.3609 C   0  0  0  0  0  0  0  0  0  0  0  0
   -2.3832    1.2738    1.5421 O   0  0  0  0  0  0  0  0  0  0  0  0
    0.5587    0.4703    1.2747 C   0  0  0  0  0  0  0  0  0  0  0  0
    1.9075   -0.0026    1.3095 O   0  0  0  0  0  0  0  0  0  0  0  0
    3.2437    0.9580   -0.4562 C   0  0  0  0  0  0  0  0  0  0  0  0
    3.1835   -1.7015   -1.3012 H   0  0  0  0  0  0  0  0  0  0  0  0
    3.8022   -1.6433    0.3726 H   0  0  0  0  0  0  0  0  0  0  0  0
    2.2098   -2.3182    0.0330 H   0  0  0  0  0  0  0  0  0  0  0  0
   -0.1813   -1.2319    0.1647 H   0  0  0  0  0  0  0  0  0  0  0  0
   -0.9884    1.5295   -0.9363 H   0  0  0  0  0  0  0  0  0  0  0  0
   -5.1906   -0.7684   -0.2101 H   0  0  0  0  0  0  0  0  0  0  0  0
   -3.2765    1.1880    1.9359 H   0  0  0  0  0  0  0  0  0  0  0  0
    0.0366    0.1666    2.1856 H   0  0  0  0  0  0  0  0  0  0  0  0
    0.5860    1.5642    1.2177 H   0  0  0  0  0  0  0  0  0  0  0  0
    3.5365    0.8819   -1.5086 H   0  0  0  0  0  0  0  0  0  0  0  0
    2.7729    1.9388   -0.3225 H   0  0  0  0  0  0  0  0  0  0  0  0
    4.1416    0.9422    0.1702 H   0  0  0  0  0  0  0  0  0  0  0  0
  1  2  1  0
  2  3  1  0
  3  4  1  0
  4  5  1  0
  5  6  1  0
  6  7  1  0
  7  8  2  0
  7  9  1  0
  9 10  1  0
  9 11  2  0
 11 12  1  0
  4 13  1  0
 13 14  1  0
  2 15  1  0
 14  2  1  0
 11  5  1  0
  1 16  1  0
  1 17  1  0
  1 18  1  0
  4 19  1  1
  5 20  1  6
 10 21  1  0
 12 22  1  0
 13 23  1  0
 13 24  1  0
 15 25  1  0
 15 26  1  0
 15 27  1  0
M  END
$$$$
